*GHG emissions output file

*DSSAT Cropping System Model Ver. 4.8.2.000 -release  JAN 19, 2026 13:40:14

*RUN   1        : No N                      WHAPS048 HWOC2501    1
 MODEL          : WHAPS048 - Wheat
 EXPERIMENT     : HWOC2501 WH
 DATA PATH      : C:/DSSAT48/Wheat/
 TREATMENT  1   : No N                      WHAPS048
  
!               |------ Daily (g/ha) -----|--- Cumulative (kg/ha) ---|---- Cum CO2-equiv kg[CO2eq]/ha ---|
!                    CO2      N2O      CH4      CO2      N2O      CH4      CO2      N2O      CH4    Total
!                g[C]/ha  g[N]/ha  g[C]/ha kg[C]/ha kg[N]/ha kg[C]/ha    CO2eq    CO2eq    CO2eq    CO2eq
@YEAR DOY   DAS   CO2GED   N2OGED   CH4GED    CO2EC    N2OEC    CH4EC    CCEQC    NCEQC    MCEQC    TCEQC
 2024 296     1    21938     0.00     0.00       22     0.00     0.00       81        0        0       81
 2024 297     2    21178     0.01     0.00       43     0.00     0.00      158        0        0      158
 2024 298     3    18852     0.03     0.00       62     0.00     0.00      227        0        0      227
 2024 299     4    17183     0.04     0.00       79     0.00     0.00      290        0        0      291
 2024 300     5    16046     0.06     0.00       95     0.00     0.00      349        0        0      349
 2024 301     6    14642     0.08     0.00      110     0.00     0.00      403        0        0      403
 2024 302     7    13625     0.09     0.00      123     0.00     0.00      453        0        0      453
 2024 303     8    14261     0.11     0.00      138     0.00     0.00      505        0        0      506
 2024 304     9    14682     0.13     0.00      152     0.00     0.00      559        0        0      560
 2024 305    10    14089     0.14     0.00      166     0.00     0.00      611        0        0      611
 2024 306    11    13398     0.15     0.00      180     0.00     0.00      660        0        0      661
 2024 307    12    11466     0.16     0.00      191     0.00     0.00      702        0        0      703
 2024 308    13     9468     0.17     0.00      201     0.00     0.00      737        1        0      738
 2024 309    14     7078     0.17     0.00      208     0.00     0.00      763        1        0      764
 2024 310    15     5126     0.18     0.00      213     0.00     0.00      782        1        0      783
 2024 311    16     3040     0.18     0.00      216     0.00     0.00      793        1        0      794
 2024 312    17     3002     0.18     0.00      219     0.00     0.00      804        1        0      805
 2024 313    18     2453     0.18     0.00      222     0.00     0.00      813        1        0      814
 2024 314    19     1788     0.18     0.00      223     0.00     0.00      820        1        0      821
 2024 315    20     1179     0.18     0.00      224     0.00     0.00      824        1        0      825
 2024 316    21     1290     0.17     0.00      226     0.00     0.00      829        1        0      830
 2024 317    22      675     0.16     0.00      226     0.00     0.00      831        1        0      832
 2024 318    23      427     0.13     0.00      227     0.00     0.00      833        1        0      834
 2024 319    24      247     0.11     0.00      227     0.00     0.00      834        1        0      835
 2024 320    25      218     0.11     0.00      227     0.00     0.00      834        1        0      836
 2024 321    26      214     0.13     0.00      228     0.00     0.00      835        2        0      837
 2024 322    27      210     0.14     0.00      228     0.00     0.00      836        2        0      838
 2024 323    28      220     0.10     0.00      228     0.00     0.00      837        2        0      838
 2024 324    29      352     0.01     0.00      228     0.00     0.00      838        2        0      840
 2024 325    30      602     0.01     0.00      229     0.00     0.00      840        2        0      842
 2024 326    31      475     0.01     0.00      229     0.00     0.00      842        2        0      844
 2024 327    32      326     0.03     0.00      230     0.00     0.00      843        2        0      845
 2024 328    33      172     0.05     0.00      230     0.00     0.00      844        2        0      845
 2024 329    34      109     0.08     0.00      230     0.00     0.00      844        2        0      846
 2024 330    35       90     0.11     0.00      230     0.00     0.00      845        2        0      846
 2024 331    36      166     0.12     0.00      230     0.00     0.00      845        2        0      847
 2024 332    37      410     0.04     0.00      231     0.00     0.00      847        2        0      848
 2024 333    38     1125     0.07     0.00      232     0.00     0.00      851        2        0      853
 2024 334    39     2263     0.02     0.00      234     0.00     0.00      859        2        0      861
 2024 335    40      941     0.06     0.00      235     0.00     0.00      863        2        0      864
 2024 336    41      445     0.10     0.00      235     0.00     0.00      864        2        0      866
 2024 337    42      143     0.12     0.00      236     0.00     0.00      865        2        0      867
 2024 338    43       64     0.03     0.00      236     0.00     0.00      865        2        0      867
 2024 339    44       52     0.03     0.00      236     0.00     0.00      865        2        0      867
 2024 340    45       43     0.06     0.00      236     0.00     0.00      865        2        0      867
 2024 341    46       34     0.08     0.00      236     0.00     0.00      865        2        0      868
 2024 342    47       92     0.00     0.00      236     0.00     0.00      866        2        0      868
 2024 343    48      119     0.02     0.00      236     0.00     0.00      866        2        0      868
 2024 344    49       88     0.03     0.00      236     0.00     0.00      867        2        0      869
 2024 345    50       95     0.06     0.00      236     0.00     0.00      867        2        0      869
 2024 346    51       97     0.09     0.00      236     0.00     0.00      867        2        0      869
 2024 347    52       46     0.11     0.00      236     0.00     0.00      867        2        0      870
 2024 348    53       26     0.12     0.00      236     0.00     0.00      867        2        0      870
 2024 349    54       13     0.13     0.00      236     0.01     0.00      868        2        0      870
 2024 350    55        9     0.13     0.00      236     0.01     0.00      868        2        0      870
 2024 351    56       10     0.11     0.00      236     0.01     0.00      868        2        0      870
 2024 352    57       24     0.11     0.00      236     0.01     0.00      868        3        0      870
 2024 353    58       58     0.11     0.00      236     0.01     0.00      868        3        0      870
 2024 354    59      140     0.12     0.00      237     0.01     0.00      868        3        0      871
 2024 355    60      378     0.04     0.00      237     0.01     0.00      870        3        0      872
 2024 356    61      348     0.06     0.00      237     0.01     0.00      871        3        0      874
 2024 357    62      203     0.05     0.00      238     0.01     0.00      872        3        0      875
 2024 358    63      138     0.01     0.00      238     0.01     0.00      872        3        0      875
 2024 359    64       63     0.03     0.00      238     0.01     0.00      873        3        0      875
 2024 360    65       24     0.05     0.00      238     0.01     0.00      873        3        0      875
 2024 361    66       23     0.09     0.00      238     0.01     0.00      873        3        0      876
 2024 362    67       14     0.10     0.00      238     0.01     0.00      873        3        0      876
 2024 363    68        5     0.11     0.00      238     0.01     0.00      873        3        0      876
 2024 364    69        3     0.11     0.00      238     0.01     0.00      873        3        0      876
 2024 365    70        0     0.11     0.00      238     0.01     0.00      873        3        0      876
 2024 366    71        0     0.10     0.00      238     0.01     0.00      873        3        0      876
 2025 001    72        0     0.10     0.00      238     0.01     0.00      873        3        0      876
 2025 002    73        0     0.10     0.00      238     0.01     0.00      873        3        0      876
 2025 003    74        0     0.00     0.00      238     0.01     0.00      873        3        0      876
 2025 004    75        0     0.03     0.00      238     0.01     0.00      873        3        0      876
 2025 005    76        0     0.06     0.00      238     0.01     0.00      873        3        0      876
 2025 006    77        0     0.00     0.00      238     0.01     0.00      873        3        0      876
 2025 007    78        3     0.02     0.00      238     0.01     0.00      873        3        0      876
 2025 008    79        4     0.04     0.00      238     0.01     0.00      873        3        0      876
 2025 009    80       11     0.00     0.00      238     0.01     0.00      873        3        0      876
 2025 010    81       49     0.00     0.00      238     0.01     0.00      873        3        0      876
 2025 011    82       33     0.02     0.00      238     0.01     0.00      873        3        0      876
 2025 012    83        8     0.05     0.00      238     0.01     0.00      873        3        0      876
 2025 013    84        2     0.08     0.00      238     0.01     0.00      873        3        0      876
 2025 014    85        0     0.09     0.00      238     0.01     0.00      873        3        0      877
 2025 015    86        0     0.09     0.00      238     0.01     0.00      873        3        0      877
 2025 016    87        0     0.08     0.00      238     0.01     0.00      873        3        0      877
 2025 017    88        0     0.09     0.00      238     0.01     0.00      873        3        0      877
 2025 018    89        0     0.09     0.00      238     0.01     0.00      873        3        0      877
 2025 019    90        0     0.09     0.00      238     0.01     0.00      873        4        0      877
 2025 020    91        0     0.09     0.00      238     0.01     0.00      873        4        0      877
 2025 021    92        0     0.09     0.00      238     0.01     0.00      873        4        0      877
 2025 022    93        0     0.09     0.00      238     0.01     0.00      873        4        0      877
 2025 023    94        0     0.09     0.00      238     0.01     0.00      873        4        0      877
 2025 024    95        0     0.04     0.00      238     0.01     0.00      873        4        0      877
 2025 025    96        2     0.06     0.00      238     0.01     0.00      873        4        0      877
 2025 026    97       10     0.08     0.00      238     0.01     0.00      873        4        0      877
 2025 027    98       25     0.07     0.00      238     0.01     0.00      873        4        0      877
 2025 028    99      103     0.02     0.00      238     0.01     0.00      874        4        0      878
 2025 029   100      159     0.00     0.00      238     0.01     0.00      874        4        0      878
 2025 030   101      174     0.02     0.00      238     0.01     0.00      875        4        0      879
 2025 031   102       91     0.03     0.00      238     0.01     0.00      875        4        0      879
 2025 032   103       47     0.04     0.00      239     0.01     0.00      875        4        0      879
 2025 033   104       10     0.07     0.00      239     0.01     0.00      875        4        0      879
 2025 034   105        3     0.08     0.00      239     0.01     0.00      875        4        0      879
 2025 035   106        0     0.08     0.00      239     0.01     0.00      875        4        0      879
 2025 036   107        0     0.08     0.00      239     0.01     0.00      875        4        0      879
 2025 037   108        0     0.08     0.00      239     0.01     0.00      875        4        0      880
 2025 038   109        0     0.08     0.00      239     0.01     0.00      875        4        0      880
 2025 039   110        0     0.08     0.00      239     0.01     0.00      875        4        0      880
 2025 040   111        0     0.08     0.00      239     0.01     0.00      875        4        0      880
 2025 041   112        0     0.07     0.00      239     0.01     0.00      875        4        0      880
 2025 042   113        0     0.07     0.00      239     0.01     0.00      875        4        0      880
 2025 043   114        0     0.01     0.00      239     0.01     0.00      875        4        0      880
 2025 044   115        2     0.00     0.00      239     0.01     0.00      875        4        0      880
 2025 045   116        1     0.00     0.00      239     0.01     0.00      876        4        0      880
 2025 046   117        0     0.02     0.00      239     0.01     0.00      876        4        0      880
 2025 047   118        0     0.04     0.00      239     0.01     0.00      876        4        0      880
 2025 048   119        0     0.06     0.00      239     0.01     0.00      876        4        0      880
 2025 049   120        0     0.07     0.00      239     0.01     0.00      876        4        0      880
 2025 050   121        0     0.07     0.00      239     0.01     0.00      876        4        0      880
 2025 051   122        0     0.07     0.00      239     0.01     0.00      876        4        0      880
 2025 052   123        0     0.07     0.00      239     0.01     0.00      876        4        0      880
 2025 053   124        0     0.07     0.00      239     0.01     0.00      876        4        0      880
 2025 054   125        0     0.07     0.00      239     0.01     0.00      876        4        0      880
 2025 055   126        5     0.07     0.00      239     0.01     0.00      876        5        0      880
 2025 056   127      110     0.07     0.00      239     0.01     0.00      876        5        0      880
 2025 057   128     1447     0.07     0.00      240     0.01     0.00      881        5        0      886
 2025 058   129      346     0.06     0.00      240     0.01     0.00      883        5        0      887
 2025 059   130      161     0.04     0.00      241     0.01     0.00      883        5        0      888
 2025 060   131       29     0.03     0.00      241     0.01     0.00      883        5        0      888
 2025 061   132        6     0.05     0.00      241     0.01     0.00      883        5        0      888
 2025 062   133        0     0.06     0.00      241     0.01     0.00      883        5        0      888
 2025 063   134        0     0.07     0.00      241     0.01     0.00      883        5        0      888
 2025 064   135        1     0.06     0.00      241     0.01     0.00      883        5        0      888
 2025 065   136        7     0.06     0.00      241     0.01     0.00      883        5        0      888
 2025 066   137       57     0.06     0.00      241     0.01     0.00      883        5        0      888
 2025 067   138      820     0.06     0.00      242     0.01     0.00      886        5        0      891
 2025 068   139     2728     0.06     0.00      244     0.01     0.00      896        5        0      901
 2025 069   140     4094     0.06     0.00      248     0.01     0.00      912        5        0      916
 2025 070   141     5116     0.06     0.00      253     0.01     0.00      930        5        0      935
 2025 071   142     4992     0.06     0.00      258     0.01     0.00      949        5        0      954
 2025 072   143     4263     0.06     0.00      263     0.01     0.00      964        5        0      969
 2025 073   144     2470     0.05     0.00      265     0.01     0.00      973        5        0      978
 2025 074   145      867     0.05     0.00      266     0.01     0.00      976        5        0      982
 2025 075   146       72     0.06     0.00      266     0.01     0.00      977        5        0      982
 2025 076   147       17     0.06     0.00      266     0.01     0.00      977        5        0      982
 2025 077   148        2     0.06     0.00      266     0.01     0.00      977        5        0      982
 2025 078   149        0     0.06     0.00      266     0.01     0.00      977        5        0      982
 2025 079   150        0     0.06     0.00      266     0.01     0.00      977        5        0      982
 2025 080   151        4     0.06     0.00      266     0.01     0.00      977        5        0      982
 2025 081   152       63     0.06     0.00      266     0.01     0.00      977        5        0      982
 2025 082   153     2088     0.06     0.00      268     0.01     0.00      985        5        0      990
 2025 083   154     5010     0.05     0.00      273     0.01     0.00     1003        5        0     1008
 2025 084   155     6441     0.00     0.00      280     0.01     0.00     1027        5        0     1032
 2025 085   156     7131     0.02     0.00      287     0.01     0.00     1053        5        0     1058
 2025 086   157     5987     0.02     0.00      293     0.01     0.00     1075        5        0     1080
 2025 087   158     5214     0.04     0.00      298     0.01     0.00     1094        5        0     1099
 2025 088   159     4751     0.06     0.00      303     0.01     0.00     1111        5        0     1117
 2025 089   160     4313     0.05     0.00      307     0.01     0.00     1127        5        0     1133
 2025 090   161     3034     0.06     0.00      310     0.01     0.00     1138        5        0     1144
 2025 091   162     2581     0.06     0.00      313     0.01     0.00     1148        5        0     1153
 2025 092   163     2087     0.07     0.00      315     0.01     0.00     1156        5        0     1161
 2025 093   164     2508     0.08     0.00      317     0.01     0.00     1165        5        0     1170
 2025 094   165     3144     0.08     0.00      321     0.01     0.00     1176        6        0     1182
 2025 095   166     4373     0.08     0.00      325     0.01     0.00     1192        6        0     1198
 2025 096   167     5653     0.09     0.00      331     0.01     0.00     1213        6        0     1219
 2025 097   168     4726     0.09     0.00      335     0.01     0.00     1230        6        0     1236
 2025 098   169     3197     0.09     0.00      338     0.01     0.00     1242        6        0     1248
 2025 099   170     1893     0.09     0.00      340     0.01     0.00     1249        6        0     1255
 2025 100   171      874     0.09     0.00      341     0.01     0.00     1252        6        0     1258
 2025 101   172      202     0.10     0.00      341     0.01     0.00     1253        6        0     1259
 2025 102   173     1476     0.10     0.00      343     0.01     0.00     1259        6        0     1264
 2025 103   174     3292     0.10     0.00      346     0.01     0.00     1271        6        0     1277
 2025 104   175     4703     0.10     0.00      351     0.01     0.00     1288        6        0     1294
 2025 105   176     6574     0.09     0.00      357     0.01     0.00     1312        6        0     1318
 2025 106   177     8185     0.09     0.00      366     0.01     0.00     1342        6        0     1348
 2025 107   178     9878     0.09     0.00      376     0.01     0.00     1378        6        0     1384
 2025 108   179    10275     0.09     0.00      386     0.01     0.00     1416        6        0     1422
 2025 109   180     9209     0.10     0.00      395     0.01     0.00     1450        6        0     1456
 2025 110   181     8185     0.11     0.00      403     0.01     0.00     1480        6        0     1486
 2025 111   182     8131     0.11     0.00      411     0.01     0.00     1510        6        0     1516
 2025 112   183     6758     0.11     0.00      418     0.01     0.00     1534        6        0     1541
 2025 113   184     6548     0.12     0.00      425     0.01     0.00     1558        6        0     1565
 2025 114   185     8327     0.03     0.00      433     0.01     0.00     1589        6        0     1595
 2025 115   186     7695     0.01     0.00      441     0.01     0.00     1617        6        0     1624
 2025 116   187     6354     0.02     0.00      447     0.01     0.00     1641        6        0     1647
 2025 117   188     6222     0.08     0.00      453     0.01     0.00     1663        6        0     1670
 2025 118   189     6500     0.14     0.00      460     0.01     0.00     1687        7        0     1694
 2025 119   190     6676     0.16     0.00      466     0.01     0.00     1712        7        0     1718
 2025 120   191     7738     0.16     0.00      474     0.01     0.00     1740        7        0     1747
 2025 121   192     8895     0.16     0.00      483     0.01     0.00     1773        7        0     1780
 2025 122   193    10694     0.17     0.00      494     0.01     0.00     1812        7        0     1819
 2025 123   194    11662     0.18     0.00      505     0.01     0.00     1855        7        0     1862
 2025 124   195    13276     0.03     0.00      519     0.01     0.00     1904        7        0     1911
 2025 125   196    11790     0.01     0.00      530     0.01     0.00     1947        7        0     1954
 2025 126   197    11022     0.08     0.00      542     0.01     0.00     1987        7        0     1994
 2025 127   198     9056     0.17     0.00      551     0.02     0.00     2021        7        0     2028
 2025 128   199     7205     0.22     0.00      558     0.02     0.00     2047        7        0     2054
 2025 129   200     5898     0.22     0.00      564     0.02     0.00     2069        7        0     2076
 2025 130   201     5529     0.22     0.00      569     0.02     0.00     2089        7        0     2096
 2025 131   202     5610     0.23     0.00      575     0.02     0.00     2110        7        0     2117
 2025 132   203     5912     0.23     0.00      581     0.02     0.00     2131        8        0     2139
 2025 133   204     6302     0.23     0.00      587     0.02     0.00     2154        8        0     2162
 2025 134   205     6304     0.23     0.00      593     0.02     0.00     2177        8        0     2185
 2025 135   206     6552     0.23     0.00      600     0.02     0.00     2202        8        0     2209
 2025 136   207     6615     0.24     0.00      606     0.02     0.00     2226        8        0     2234
 2025 137   208     5925     0.23     0.00      612     0.02     0.00     2248        8        0     2256
 2025 138   209     5451     0.23     0.00      618     0.02     0.00     2268        8        0     2276
 2025 139   210     5242     0.23     0.00      623     0.02     0.00     2287        8        0     2295
 2025 140   211     4940     0.22     0.00      628     0.02     0.00     2305        8        0     2313
 2025 141   212     5161     0.22     0.00      633     0.02     0.00     2324        9        0     2332
 2025 142   213     6289     0.19     0.00      639     0.02     0.00     2347        9        0     2356
 2025 143   214     5814     0.20     0.00      645     0.02     0.00     2368        9        0     2377
 2025 144   215     5141     0.20     0.00      650     0.02     0.00     2387        9        0     2396
 2025 145   216     4613     0.20     0.00      655     0.02     0.00     2404        9        0     2413
 2025 146   217     5165     0.17     0.00      660     0.02     0.00     2423        9        0     2432
 2025 147   218     5217     0.17     0.00      665     0.02     0.00     2442        9        0     2451
 2025 148   219     5483     0.17     0.00      671     0.02     0.00     2462        9        0     2471
 2025 149   220     6526     0.17     0.00      677     0.02     0.00     2486        9        0     2495
 2025 150   221     7029     0.18     0.00      684     0.02     0.00     2512        9        0     2521
 2025 151   222     7653     0.18     0.00      692     0.02     0.00     2540        9        0     2550
 2025 152   223     8212     0.19     0.00      700     0.02     0.00     2570        9        0     2580
 2025 153   224     9438     0.19     0.00      710     0.02     0.00     2605       10        0     2614
 2025 154   225    10774     0.02     0.00      721     0.02     0.00     2644       10        0     2654
 2025 155   226    11808     0.11     0.00      732     0.02     0.00     2688       10        0     2697
 2025 156   227    11141     0.08     0.00      744     0.02     0.00     2729       10        0     2738
 2025 157   228    10384     0.14     0.00      754     0.02     0.00     2767       10        0     2777
 2025 158   229     9394     0.06     0.00      763     0.02     0.00     2801       10        0     2811
 2025 159   230     9552     0.11     0.00      773     0.02     0.00     2836       10        0     2846
 2025 160   231     8555     0.11     0.00      781     0.02     0.00     2868       10        0     2878
 2025 161   232     7810     0.25     0.00      789     0.02     0.00     2896       10        0     2906
 2025 162   233     7167     0.28     0.00      796     0.02     0.00     2923       10        0     2933
 2025 163   234     7048     0.28     0.00      803     0.02     0.00     2949       10        0     2959
 2025 164   235     6922     0.28     0.00      810     0.02     0.00     2974       10        0     2984
 2025 165   236     7499     0.29     0.00      818     0.02     0.00     3001       11        0     3012
 2025 166   237     8173     0.30     0.00      826     0.02     0.00     3031       11        0     3042
 2025 167   238    10420     0.26     0.00      836     0.02     0.00     3070       11        0     3080
 2025 168   239     9969     0.27     0.00      846     0.02     0.00     3106       11        0     3117
 2025 169   240     9379     0.27     0.00      856     0.02     0.00     3141       11        0     3152
 2025 170   241     8681     0.28     0.00      864     0.02     0.00     3173       11        0     3184
 2025 171   242     7835     0.29     0.00      872     0.02     0.00     3201       11        0     3213
 2025 172   243     7106     0.30     0.00      879     0.02     0.00     3227       11        0     3239
 2025 173   244     6858     0.31     0.00      886     0.02     0.00     3253       12        0     3264
 2025 174   245     6740     0.32     0.00      893     0.03     0.00     3277       12        0     3289
 2025 175   246     6435     0.32     0.00      899     0.03     0.00     3301       12        0     3313
 2025 176   247     6130     0.32     0.00      906     0.03     0.00     3323       12        0     3335
 2025 177   248     6106     0.32     0.00      912     0.03     0.00     3346       12        0     3358
 2025 178   249     6027     0.31     0.00      918     0.03     0.00     3368       12        0     3380
 2025 179   250     6888     0.27     0.00      925     0.03     0.00     3393       12        0     3406
 2025 180   251     6671     0.28     0.00      931     0.03     0.00     3418       13        0     3430
 2025 181   252     6615     0.29     0.00      938     0.03     0.00     3442       13        0     3455
 2025 182   253     6483     0.30     0.00      944     0.03     0.00     3466       13        0     3479
 2025 183   254     7335     0.28     0.00      952     0.03     0.00     3493       13        0     3506
 2025 184   255     7416     0.29     0.00      959     0.03     0.00     3520       13        0     3533
 2025 185   256     6983     0.31     0.00      966     0.03     0.00     3546       13        0     3559
 2025 186   257     6594     0.31     0.00      973     0.03     0.00     3570       13        0     3583
 2025 187   258     6060     0.32     0.00      979     0.03     0.00     3592       14        0     3606
 2025 188   259     5569     0.32     0.00      984     0.03     0.00     3612       14        0     3626
 2025 189   260     5103     0.32     0.00      989     0.03     0.00     3631       14        0     3645
 2025 190   261     4883     0.30     0.00      994     0.03     0.00     3649       14        0     3663
 2025 191   262     4345     0.31     0.00      999     0.03     0.00     3665       14        0     3679
 2025 192   263     4073     0.31     0.00     1003     0.03     0.00     3680       14        0     3694
 2025 193   264     3910     0.31     0.00     1007     0.03     0.00     3694       14        0     3709
 2025 194   265     3853     0.31     0.00     1010     0.03     0.00     3708       15        0     3723
 2025 195   266     4116     0.31     0.00     1015     0.03     0.00     3724       15        0     3738
 2025 196   267     5960     0.25     0.00     1021     0.03     0.00     3745       15        0     3760
 2025 197   268     5746     0.26     0.00     1026     0.03     0.00     3767       15        0     3782
 2025 198   269     6739     0.02     0.00     1033     0.03     0.00     3791       15        0     3806
 2025 199   270     6591     0.13     0.00     1040     0.03     0.00     3815       15        0     3830
 2025 200   271     6368     0.32     0.00     1046     0.03     0.00     3839       15        0     3854
 2025 201   272     6123     0.32     0.00     1052     0.03     0.00     3861       15        0     3877
 2025 202   273     6196     0.32     0.00     1058     0.03     0.00     3884       15        0     3900
 2025 203   274     6178     0.02     0.00     1064     0.03     0.00     3907       15        0     3922
 2025 204   275     6655     0.03     0.00     1071     0.03     0.00     3931       16        0     3947
 2025 205   276     6874     0.19     0.00     1078     0.03     0.00     3956       16        0     3972
 2025 206   277     6463     0.09     0.00     1084     0.03     0.00     3980       16        0     3996
 2025 207   278     5999     0.04     0.00     1090     0.03     0.00     4002       16        0     4018
 2025 208   279     5906     0.03     0.00     1096     0.03     0.00     4024       16        0     4039
 2025 209   280     5947     0.04     0.00     1102     0.03     0.00     4046       16        0     4061
 2025 210   281     5663     0.03     0.00     1108     0.03     0.00     4066       16        0     4082
 2025 211   282     5759     0.14     0.00     1114     0.03     0.00     4088       16        0     4103
 2025 212   283     5604     0.16     0.00     1119     0.03     0.00     4108       16        0     4124
 2025 213   284     5496     0.25     0.00     1125     0.03     0.00     4128       16        0     4144
 2025 214   285     5216     0.06     0.00     1130     0.03     0.00     4147       16        0     4163
 2025 215   286     5034     0.04     0.00     1135     0.03     0.00     4166       16        0     4182
 2025 216   287     5027     0.16     0.00     1140     0.03     0.00     4184       16        0     4200
 2025 217   288     5099     0.16     0.00     1145     0.03     0.00     4203       16        0     4219
 2025 218   289     5491     0.41     0.00     1151     0.03     0.00     4223       16        0     4240
 2025 219   290     5453     0.68     0.00     1156     0.04     0.00     4243       17        0     4260
 2025 220   291     5467     0.69     0.00     1162     0.04     0.00     4263       17        0     4280
 2025 221   292     5775     0.71     0.00     1167     0.04     0.00     4284       17        0     4302

*DSSAT Cropping System Model Ver. 4.8.2.000 -release  JAN 19, 2026 13:40:14

*RUN   2        : 147 kg[N]/ha - broadcast  WHAPS048 HWOC2501    3
 MODEL          : WHAPS048 - Wheat
 EXPERIMENT     : HWOC2501 WH
 DATA PATH      : C:/DSSAT48/Wheat/
 TREATMENT  3   : 147 kg[N]/ha - broadcast  WHAPS048
  
!               |------ Daily (g/ha) -----|--- Cumulative (kg/ha) ---|---- Cum CO2-equiv kg[CO2eq]/ha ---|
!                    CO2      N2O      CH4      CO2      N2O      CH4      CO2      N2O      CH4    Total
!                g[C]/ha  g[N]/ha  g[C]/ha kg[C]/ha kg[N]/ha kg[C]/ha    CO2eq    CO2eq    CO2eq    CO2eq
@YEAR DOY   DAS   CO2GED   N2OGED   CH4GED    CO2EC    N2OEC    CH4EC    CCEQC    NCEQC    MCEQC    TCEQC
 2024 296     1    21938     0.00     0.00       22     0.00     0.00       81        0        0       81
 2024 297     2    21178     0.01     0.00       43     0.00     0.00      158        0        0      158
 2024 298     3    18852     0.03     0.00       62     0.00     0.00      227        0        0      227
 2024 299     4    17183     0.04     0.00       79     0.00     0.00      290        0        0      291
 2024 300     5    16046     0.06     0.00       95     0.00     0.00      349        0        0      349
 2024 301     6    14642     0.08     0.00      110     0.00     0.00      403        0        0      403
 2024 302     7    13625     0.09     0.00      123     0.00     0.00      453        0        0      453
 2024 303     8    14261     0.11     0.00      138     0.00     0.00      505        0        0      506
 2024 304     9    14682     0.13     0.00      152     0.00     0.00      559        0        0      560
 2024 305    10    14089     0.14     0.00      166     0.00     0.00      611        0        0      611
 2024 306    11    13398     0.15     0.00      180     0.00     0.00      660        0        0      661
 2024 307    12    11466     0.16     0.00      191     0.00     0.00      702        0        0      703
 2024 308    13     9468     0.17     0.00      201     0.00     0.00      737        1        0      738
 2024 309    14     7078     0.17     0.00      208     0.00     0.00      763        1        0      764
 2024 310    15     5126     0.18     0.00      213     0.00     0.00      782        1        0      783
 2024 311    16     3040     0.18     0.00      216     0.00     0.00      793        1        0      794
 2024 312    17     3002     0.18     0.00      219     0.00     0.00      804        1        0      805
 2024 313    18     2453     0.18     0.00      222     0.00     0.00      813        1        0      814
 2024 314    19     1788     0.18     0.00      223     0.00     0.00      820        1        0      821
 2024 315    20     1179     0.18     0.00      224     0.00     0.00      824        1        0      825
 2024 316    21     1290     0.17     0.00      226     0.00     0.00      829        1        0      830
 2024 317    22      675     0.16     0.00      226     0.00     0.00      831        1        0      832
 2024 318    23      427     0.13     0.00      227     0.00     0.00      833        1        0      834
 2024 319    24      247     0.11     0.00      227     0.00     0.00      834        1        0      835
 2024 320    25      218     0.11     0.00      227     0.00     0.00      834        1        0      836
 2024 321    26      214     0.13     0.00      228     0.00     0.00      835        2        0      837
 2024 322    27      210     0.14     0.00      228     0.00     0.00      836        2        0      838
 2024 323    28      220     0.10     0.00      228     0.00     0.00      837        2        0      838
 2024 324    29      352     0.01     0.00      228     0.00     0.00      838        2        0      840
 2024 325    30      602     0.01     0.00      229     0.00     0.00      840        2        0      842
 2024 326    31      475     0.01     0.00      229     0.00     0.00      842        2        0      844
 2024 327    32      326     0.03     0.00      230     0.00     0.00      843        2        0      845
 2024 328    33      172     0.05     0.00      230     0.00     0.00      844        2        0      845
 2024 329    34      109     0.08     0.00      230     0.00     0.00      844        2        0      846
 2024 330    35       90     0.11     0.00      230     0.00     0.00      845        2        0      846
 2024 331    36      166     0.12     0.00      230     0.00     0.00      845        2        0      847
 2024 332    37      410     0.04     0.00      231     0.00     0.00      847        2        0      848
 2024 333    38     1125     0.07     0.00      232     0.00     0.00      851        2        0      853
 2024 334    39     2263     0.02     0.00      234     0.00     0.00      859        2        0      861
 2024 335    40      941     0.06     0.00      235     0.00     0.00      863        2        0      864
 2024 336    41      445     0.10     0.00      235     0.00     0.00      864        2        0      866
 2024 337    42      143     0.12     0.00      236     0.00     0.00      865        2        0      867
 2024 338    43       64     0.03     0.00      236     0.00     0.00      865        2        0      867
 2024 339    44       52     0.03     0.00      236     0.00     0.00      865        2        0      867
 2024 340    45       43     0.06     0.00      236     0.00     0.00      865        2        0      867
 2024 341    46       34     0.08     0.00      236     0.00     0.00      865        2        0      868
 2024 342    47       92     0.00     0.00      236     0.00     0.00      866        2        0      868
 2024 343    48      119     0.02     0.00      236     0.00     0.00      866        2        0      868
 2024 344    49       88     0.03     0.00      236     0.00     0.00      867        2        0      869
 2024 345    50       95     0.06     0.00      236     0.00     0.00      867        2        0      869
 2024 346    51       97     0.09     0.00      236     0.00     0.00      867        2        0      869
 2024 347    52       46     0.11     0.00      236     0.00     0.00      867        2        0      870
 2024 348    53       26     0.12     0.00      236     0.00     0.00      867        2        0      870
 2024 349    54       13     0.13     0.00      236     0.01     0.00      868        2        0      870
 2024 350    55        9     0.13     0.00      236     0.01     0.00      868        2        0      870
 2024 351    56       10     0.11     0.00      236     0.01     0.00      868        2        0      870
 2024 352    57       24     0.11     0.00      236     0.01     0.00      868        3        0      870
 2024 353    58       58     0.11     0.00      236     0.01     0.00      868        3        0      870
 2024 354    59      140     0.12     0.00      237     0.01     0.00      868        3        0      871
 2024 355    60      378     0.04     0.00      237     0.01     0.00      870        3        0      872
 2024 356    61      348     0.06     0.00      237     0.01     0.00      871        3        0      874
 2024 357    62      203     0.05     0.00      238     0.01     0.00      872        3        0      875
 2024 358    63      138     0.01     0.00      238     0.01     0.00      872        3        0      875
 2024 359    64       63     0.03     0.00      238     0.01     0.00      873        3        0      875
 2024 360    65       24     0.05     0.00      238     0.01     0.00      873        3        0      875
 2024 361    66       23     0.09     0.00      238     0.01     0.00      873        3        0      876
 2024 362    67       14     0.10     0.00      238     0.01     0.00      873        3        0      876
 2024 363    68        5     0.11     0.00      238     0.01     0.00      873        3        0      876
 2024 364    69        3     0.11     0.00      238     0.01     0.00      873        3        0      876
 2024 365    70        0     0.11     0.00      238     0.01     0.00      873        3        0      876
 2024 366    71        0     0.10     0.00      238     0.01     0.00      873        3        0      876
 2025 001    72        0     0.10     0.00      238     0.01     0.00      873        3        0      876
 2025 002    73        0     0.10     0.00      238     0.01     0.00      873        3        0      876
 2025 003    74        0     0.00     0.00      238     0.01     0.00      873        3        0      876
 2025 004    75        0     0.03     0.00      238     0.01     0.00      873        3        0      876
 2025 005    76        0     0.06     0.00      238     0.01     0.00      873        3        0      876
 2025 006    77        0     0.00     0.00      238     0.01     0.00      873        3        0      876
 2025 007    78        3     0.02     0.00      238     0.01     0.00      873        3        0      876
 2025 008    79        4     0.04     0.00      238     0.01     0.00      873        3        0      876
 2025 009    80       11     0.00     0.00      238     0.01     0.00      873        3        0      876
 2025 010    81       49     0.00     0.00      238     0.01     0.00      873        3        0      876
 2025 011    82       33     0.02     0.00      238     0.01     0.00      873        3        0      876
 2025 012    83        8     0.05     0.00      238     0.01     0.00      873        3        0      876
 2025 013    84        2     0.08     0.00      238     0.01     0.00      873        3        0      876
 2025 014    85        0     0.09     0.00      238     0.01     0.00      873        3        0      877
 2025 015    86        0     0.09     0.00      238     0.01     0.00      873        3        0      877
 2025 016    87        0     0.08     0.00      238     0.01     0.00      873        3        0      877
 2025 017    88        0     0.09     0.00      238     0.01     0.00      873        3        0      877
 2025 018    89        0     0.09     0.00      238     0.01     0.00      873        3        0      877
 2025 019    90        0     0.09     0.00      238     0.01     0.00      873        4        0      877
 2025 020    91        0     0.09     0.00      238     0.01     0.00      873        4        0      877
 2025 021    92        0     0.09     0.00      238     0.01     0.00      873        4        0      877
 2025 022    93        0     0.09     0.00      238     0.01     0.00      873        4        0      877
 2025 023    94        0     0.09     0.00      238     0.01     0.00      873        4        0      877
 2025 024    95        0     0.04     0.00      238     0.01     0.00      873        4        0      877
 2025 025    96        2     0.06     0.00      238     0.01     0.00      873        4        0      877
 2025 026    97       10     0.08     0.00      238     0.01     0.00      873        4        0      877
 2025 027    98       25     0.07     0.00      238     0.01     0.00      873        4        0      877
 2025 028    99      103     0.02     0.00      238     0.01     0.00      874        4        0      878
 2025 029   100      159     0.00     0.00      238     0.01     0.00      874        4        0      878
 2025 030   101      174     0.02     0.00      238     0.01     0.00      875        4        0      879
 2025 031   102       91     0.03     0.00      238     0.01     0.00      875        4        0      879
 2025 032   103       47     0.04     0.00      239     0.01     0.00      875        4        0      879
 2025 033   104       10     0.07     0.00      239     0.01     0.00      875        4        0      879
 2025 034   105        3     0.08     0.00      239     0.01     0.00      875        4        0      879
 2025 035   106        0     0.08     0.00      239     0.01     0.00      875        4        0      879
 2025 036   107        0     0.08     0.00      239     0.01     0.00      875        4        0      879
 2025 037   108        0     0.08     0.00      239     0.01     0.00      875        4        0      880
 2025 038   109        0     0.08     0.00      239     0.01     0.00      875        4        0      880
 2025 039   110        0     0.08     0.00      239     0.01     0.00      875        4        0      880
 2025 040   111        0     0.08     0.00      239     0.01     0.00      875        4        0      880
 2025 041   112        0     0.07     0.00      239     0.01     0.00      875        4        0      880
 2025 042   113        0     0.07     0.00      239     0.01     0.00      875        4        0      880
 2025 043   114        0     0.01     0.00      239     0.01     0.00      875        4        0      880
 2025 044   115        2     0.00     0.00      239     0.01     0.00      875        4        0      880
 2025 045   116        1     0.00     0.00      239     0.01     0.00      876        4        0      880
 2025 046   117        0     0.02     0.00      239     0.01     0.00      876        4        0      880
 2025 047   118        0     0.04     0.00      239     0.01     0.00      876        4        0      880
 2025 048   119        0     0.06     0.00      239     0.01     0.00      876        4        0      880
 2025 049   120        0     0.07     0.00      239     0.01     0.00      876        4        0      880
 2025 050   121        0     0.07     0.00      239     0.01     0.00      876        4        0      880
 2025 051   122        0     0.07     0.00      239     0.01     0.00      876        4        0      880
 2025 052   123        0     0.07     0.00      239     0.01     0.00      876        4        0      880
 2025 053   124        0     0.07     0.00      239     0.01     0.00      876        4        0      880
 2025 054   125        0     0.07     0.00      239     0.01     0.00      876        4        0      880
 2025 055   126        5     0.07     0.00      239     0.01     0.00      876        5        0      880
 2025 056   127      110     0.07     0.00      239     0.01     0.00      876        5        0      880
 2025 057   128     1447     0.07     0.00      240     0.01     0.00      881        5        0      886
 2025 058   129      346     0.06     0.00      240     0.01     0.00      883        5        0      887
 2025 059   130      161     0.04     0.00      241     0.01     0.00      883        5        0      888
 2025 060   131       29     0.03     0.00      241     0.01     0.00      883        5        0      888
 2025 061   132        6     0.05     0.00      241     0.01     0.00      883        5        0      888
 2025 062   133        0     0.06     0.00      241     0.01     0.00      883        5        0      888
 2025 063   134        0     0.07     0.00      241     0.01     0.00      883        5        0      888
 2025 064   135        1     0.06     0.00      241     0.01     0.00      883        5        0      888
 2025 065   136        7     0.06     0.00      241     0.01     0.00      883        5        0      888
 2025 066   137       57     0.63     0.00      241     0.01     0.00      883        5        0      889
 2025 067   138      820     1.14     0.00      242     0.01     0.00      886        6        0      892
 2025 068   139     2720     1.56     0.00      244     0.01     0.00      896        6        0      903
 2025 069   140     4061     1.87     0.00      248     0.02     0.00      911        7        0      919
 2025 070   141     5038     2.08     0.00      253     0.02     0.00      930        8        0      938
 2025 071   142     4899     2.28     0.00      258     0.02     0.00      948        9        0      957
 2025 072   143     4182     2.28     0.00      262     0.02     0.00      963       10        0      973
 2025 073   144     2441     2.03     0.00      265     0.02     0.00      972       11        0      983
 2025 074   145      865     2.01     0.00      266     0.03     0.00      975       12        0      988
 2025 075   146       72     2.17     0.00      266     0.03     0.00      976       13        0      989
 2025 076   147       17     2.14     0.00      266     0.03     0.00      976       14        0      990
 2025 077   148        2     2.02     0.00      266     0.03     0.00      976       15        0      991
 2025 078   149        0     1.90     0.00      266     0.03     0.00      976       16        0      992
 2025 079   150        0     1.80     0.00      266     0.04     0.00      976       17        0      993
 2025 080   151        3     1.72     0.00      266     0.04     0.00      976       18        0      993
 2025 081   152       63     1.66     0.00      266     0.04     0.00      976       18        0      994
 2025 082   153     1972     1.58     0.00      268     0.04     0.00      983       19        0     1002
 2025 083   154     4838     1.33     0.00      273     0.04     0.00     1001       20        0     1021
 2025 084   155     6537     0.16     0.00      279     0.04     0.00     1025       20        0     1045
 2025 085   156     7222     0.45     0.00      286     0.04     0.00     1051       20        0     1072
 2025 086   157     6078     0.42     0.00      293     0.04     0.00     1074       20        0     1094
 2025 087   158     5264     0.79     0.00      298     0.04     0.00     1093       21        0     1114
 2025 088   159     4795     1.14     0.00      303     0.05     0.00     1111       21        0     1132
 2025 089   160     4385     0.99     0.00      307     0.05     0.00     1127       22        0     1148
 2025 090   161     3077     0.95     0.00      310     0.05     0.00     1138       22        0     1160
 2025 091   162     2615     0.81     0.00      313     0.05     0.00     1148       23        0     1170
 2025 092   163     2105     0.83     0.00      315     0.05     0.00     1155       23        0     1178
 2025 093   164     2502     1.22     0.00      317     0.05     0.00     1164       23        0     1188
 2025 094   165     3095     1.49     0.00      320     0.05     0.00     1176       24        0     1200
 2025 095   166     4178     1.69     0.00      325     0.05     0.00     1191       25        0     1216
 2025 096   167     5075     1.86     0.00      330     0.06     0.00     1210       26        0     1236
 2025 097   168     4021     1.94     0.00      334     0.06     0.00     1225       27        0     1251
 2025 098   169     2693     1.90     0.00      336     0.06     0.00     1234       28        0     1262
 2025 099   170     1612     1.81     0.00      338     0.06     0.00     1240       28        0     1269
 2025 100   171      734     1.71     0.00      339     0.06     0.00     1243       29        0     1272
 2025 101   172      188     1.59     0.00      339     0.06     0.00     1244       30        0     1274
 2025 102   173     1159     1.46     0.00      340     0.07     0.00     1248       31        0     1279
 2025 103   174     2406     1.35     0.00      342     0.07     0.00     1257       31        0     1288
 2025 104   175     3245     1.23     0.00      346     0.07     0.00     1269       32        0     1301
 2025 105   176     4638     1.09     0.00      350     0.07     0.00     1286       32        0     1318
 2025 106   177     5622     1.08     0.00      356     0.07     0.00     1306       33        0     1339
 2025 107   178     6528     1.06     0.00      362     0.07     0.00     1330       33        0     1364
 2025 108   179     6707     0.95     0.00      369     0.07     0.00     1355       34        0     1389
 2025 109   180     6166     0.86     0.00      375     0.07     0.00     1378       34        0     1412
 2025 110   181     5502     0.80     0.00      381     0.07     0.00     1398       35        0     1432
 2025 111   182     5412     0.69     0.00      386     0.07     0.00     1418       35        0     1453
 2025 112   183     4328     0.63     0.00      391     0.08     0.00     1434       35        0     1469
 2025 113   184     4115     0.57     0.00      395     0.08     0.00     1449       36        0     1484
 2025 114   185     6364     0.21     0.00      401     0.08     0.00     1472       36        0     1508
 2025 115   186     6911     0.09     0.00      408     0.08     0.00     1497       36        0     1533
 2025 116   187     6240     0.11     0.00      414     0.08     0.00     1520       36        0     1556
 2025 117   188     6032     0.23     0.00      420     0.08     0.00     1542       36        0     1578
 2025 118   189     6288     0.36     0.00      427     0.08     0.00     1565       36        0     1601
 2025 119   190     6385     0.39     0.00      433     0.08     0.00     1589       36        0     1625
 2025 120   191     7274     0.35     0.00      440     0.08     0.00     1616       36        0     1652
 2025 121   192     8178     0.32     0.00      448     0.08     0.00     1646       37        0     1682
 2025 122   193     9625     0.29     0.00      458     0.08     0.00     1681       37        0     1718
 2025 123   194    10222     0.27     0.00      468     0.08     0.00     1718       37        0     1755
 2025 124   195    12563     0.04     0.00      481     0.08     0.00     1765       37        0     1801
 2025 125   196    11300     0.01     0.00      492     0.08     0.00     1806       37        0     1843
 2025 126   197    10949     0.08     0.00      503     0.08     0.00     1846       37        0     1883
 2025 127   198     9073     0.15     0.00      512     0.08     0.00     1880       37        0     1916
 2025 128   199     7359     0.20     0.00      519     0.08     0.00     1907       37        0     1944
 2025 129   200     6189     0.22     0.00      526     0.08     0.00     1929       37        0     1966
 2025 130   201     5882     0.20     0.00      532     0.08     0.00     1951       37        0     1988
 2025 131   202     5991     0.19     0.00      538     0.08     0.00     1973       37        0     2010
 2025 132   203     6279     0.17     0.00      544     0.08     0.00     1996       37        0     2033
 2025 133   204     6606     0.81     0.00      550     0.08     0.00     2020       38        0     2058
 2025 134   205     6553     1.22     0.00      557     0.08     0.00     2044       38        0     2082
 2025 135   206     6645     1.46     0.00      564     0.08     0.00     2069       39        0     2108
 2025 136   207     6330     1.55     0.00      570     0.08     0.00     2092       40        0     2131
 2025 137   208     5545     1.51     0.00      576     0.09     0.00     2112       40        0     2153
 2025 138   209     4869     1.41     0.00      580     0.09     0.00     2130       41        0     2171
 2025 139   210     4436     1.31     0.00      585     0.09     0.00     2146       42        0     2188
 2025 140   211     3950     1.20     0.00      589     0.09     0.00     2161       42        0     2203
 2025 141   212     3633     1.12     0.00      592     0.09     0.00     2174       43        0     2217
 2025 142   213     4171     0.90     0.00      597     0.09     0.00     2189       43        0     2233
 2025 143   214     3612     0.84     0.00      600     0.09     0.00     2203       44        0     2246
 2025 144   215     3126     0.76     0.00      603     0.09     0.00     2214       44        0     2258
 2025 145   216     2656     0.69     0.00      606     0.09     0.00     2224       44        0     2268
 2025 146   217     3210     0.52     0.00      609     0.10     0.00     2236       45        0     2280
 2025 147   218     3327     0.47     0.00      612     0.10     0.00     2248       45        0     2293
 2025 148   219     3293     0.43     0.00      616     0.10     0.00     2260       45        0     2305
 2025 149   220     3947     0.38     0.00      620     0.10     0.00     2274       45        0     2320
 2025 150   221     4291     0.35     0.00      624     0.10     0.00     2290       45        0     2335
 2025 151   222     4407     0.33     0.00      628     0.10     0.00     2306       45        0     2352
 2025 152   223     3867     0.33     0.00      632     0.10     0.00     2321       46        0     2366
 2025 153   224     3824     0.31     0.00      636     0.10     0.00     2335       46        0     2380
 2025 154   225     6642     0.15     0.00      643     0.10     0.00     2359       46        0     2405
 2025 155   226     7266     0.23     0.00      650     0.10     0.00     2386       46        0     2432
 2025 156   227     7336     0.22     0.00      657     0.10     0.00     2413       46        0     2459
 2025 157   228     6407     0.21     0.00      664     0.10     0.00     2436       46        0     2482
 2025 158   229     6453     0.13     0.00      670     0.10     0.00     2460       46        0     2506
 2025 159   230     6674     0.16     0.00      677     0.10     0.00     2484       46        0     2530
 2025 160   231     6162     0.14     0.00      683     0.10     0.00     2507       46        0     2553
 2025 161   232     5354     0.18     0.00      688     0.10     0.00     2527       46        0     2573
 2025 162   233     3714     0.18     0.00      692     0.10     0.00     2540       46        0     2587
 2025 163   234     2571     0.20     0.00      695     0.10     0.00     2550       47        0     2596
 2025 164   235     2035     0.20     0.00      697     0.10     0.00     2557       47        0     2604
 2025 165   236     1981     0.20     0.00      699     0.10     0.00     2564       47        0     2611
 2025 166   237     2240     0.19     0.00      701     0.10     0.00     2573       47        0     2619
 2025 167   238     4624     0.14     0.00      706     0.10     0.00     2589       47        0     2636
 2025 168   239     3401     0.16     0.00      709     0.10     0.00     2602       47        0     2649
 2025 169   240     2415     0.17     0.00      711     0.10     0.00     2611       47        0     2658
 2025 170   241     2352     0.17     0.00      714     0.10     0.00     2619       47        0     2667
 2025 171   242     2245     0.16     0.00      716     0.10     0.00     2628       47        0     2675
 2025 172   243     2144     0.16     0.00      718     0.10     0.00     2636       47        0     2683
 2025 173   244     2158     0.15     0.00      720     0.10     0.00     2644       47        0     2691
 2025 174   245     2247     0.15     0.00      723     0.10     0.00     2652       47        0     2699
 2025 175   246     2293     0.14     0.00      725     0.10     0.00     2660       48        0     2708
 2025 176   247     2279     0.14     0.00      727     0.10     0.00     2669       48        0     2716
 2025 177   248     2370     0.14     0.00      729     0.10     0.00     2677       48        0     2725
 2025 178   249     2443     0.14     0.00      732     0.10     0.00     2686       48        0     2734
 2025 179   250     3625     0.12     0.00      736     0.10     0.00     2699       48        0     2747
 2025 180   251     2851     0.13     0.00      738     0.10     0.00     2710       48        0     2758
 2025 181   252     2747     0.13     0.00      741     0.10     0.00     2720       48        0     2768
 2025 182   253     2772     0.13     0.00      744     0.10     0.00     2730       48        0     2778
 2025 183   254     3915     0.12     0.00      748     0.10     0.00     2745       48        0     2793
 2025 184   255     2990     0.14     0.00      751     0.10     0.00     2756       48        0     2804
 2025 185   256     2880     0.14     0.00      754     0.10     0.00     2766       48        0     2814
 2025 186   257     2758     0.14     0.00      756     0.10     0.00     2776       48        0     2824
 2025 187   258     2574     0.14     0.00      759     0.10     0.00     2786       48        0     2834
 2025 188   259     2403     0.14     0.00      761     0.10     0.00     2795       48        0     2843
 2025 189   260     2307     0.14     0.00      764     0.10     0.00     2803       48        0     2851
 2025 190   261     2442     0.13     0.00      766     0.10     0.00     2812       48        0     2860
 2025 191   262     2169     0.13     0.00      768     0.10     0.00     2820       49        0     2868
 2025 192   263     2028     0.13     0.00      770     0.10     0.00     2827       49        0     2876
 2025 193   264     1940     0.14     0.00      772     0.10     0.00     2834       49        0     2883
 2025 194   265     1907     0.14     0.00      774     0.10     0.00     2841       49        0     2890
 2025 195   266     2029     0.14     0.00      776     0.10     0.00     2849       49        0     2898
 2025 196   267     4335     0.10     0.00      781     0.10     0.00     2865       49        0     2914
 2025 197   268     4213     0.11     0.00      785     0.10     0.00     2880       49        0     2929
 2025 198   269     6334     0.01     0.00      791     0.10     0.00     2904       49        0     2952
 2025 199   270     6739     0.06     0.00      798     0.10     0.00     2928       49        0     2977
 2025 200   271     6424     0.15     0.00      804     0.10     0.00     2952       49        0     3001
 2025 201   272     6339     0.16     0.00      811     0.10     0.00     2975       49        0     3024
 2025 202   273     6387     0.16     0.00      817     0.10     0.00     2999       49        0     3048
 2025 203   274     6294     0.01     0.00      823     0.10     0.00     3022       49        0     3071
 2025 204   275     7232     0.02     0.00      831     0.10     0.00     3048       49        0     3097
 2025 205   276     7859     0.12     0.00      838     0.11     0.00     3077       49        0     3126
 2025 206   277     7505     0.06     0.00      846     0.11     0.00     3105       49        0     3154
 2025 207   278     6873     0.03     0.00      853     0.11     0.00     3130       49        0     3179
 2025 208   279     6677     0.02     0.00      859     0.11     0.00     3154       49        0     3204
 2025 209   280     6812     0.03     0.00      866     0.11     0.00     3179       49        0     3229
 2025 210   281     6515     0.02     0.00      873     0.11     0.00     3203       49        0     3252
 2025 211   282     6697     0.09     0.00      880     0.11     0.00     3228       49        0     3277
 2025 212   283     6447     0.11     0.00      886     0.11     0.00     3251       49        0     3301
 2025 213   284     6348     0.17     0.00      892     0.11     0.00     3275       49        0     3324
 2025 214   285     6000     0.04     0.00      898     0.11     0.00     3297       49        0     3346
 2025 215   286     5768     0.03     0.00      904     0.11     0.00     3318       49        0     3367
 2025 216   287     5809     0.11     0.00      910     0.11     0.00     3339       50        0     3389
 2025 217   288     5914     0.11     0.00      916     0.11     0.00     3361       50        0     3411
 2025 218   289     6437     0.29     0.00      922     0.11     0.00     3385       50        0     3434
 2025 219   290     6334     0.46     0.00      929     0.11     0.00     3408       50        0     3458
 2025 220   291     6232     0.47     0.00      935     0.11     0.00     3431       50        0     3481
 2025 221   292     6696     0.49     0.00      941     0.11     0.00     3455       50        0     3506

*DSSAT Cropping System Model Ver. 4.8.2.000 -release  JAN 19, 2026 13:40:14

*RUN   3        : 180 kg[N]/ha - broadcast  WHAPS048 HWOC2501    7
 MODEL          : WHAPS048 - Wheat
 EXPERIMENT     : HWOC2501 WH
 DATA PATH      : C:/DSSAT48/Wheat/
 TREATMENT  7   : 180 kg[N]/ha - broadcast  WHAPS048
  
!               |------ Daily (g/ha) -----|--- Cumulative (kg/ha) ---|---- Cum CO2-equiv kg[CO2eq]/ha ---|
!                    CO2      N2O      CH4      CO2      N2O      CH4      CO2      N2O      CH4    Total
!                g[C]/ha  g[N]/ha  g[C]/ha kg[C]/ha kg[N]/ha kg[C]/ha    CO2eq    CO2eq    CO2eq    CO2eq
@YEAR DOY   DAS   CO2GED   N2OGED   CH4GED    CO2EC    N2OEC    CH4EC    CCEQC    NCEQC    MCEQC    TCEQC
 2024 296     1    21938     0.00     0.00       22     0.00     0.00       81        0        0       81
 2024 297     2    21178     0.01     0.00       43     0.00     0.00      158        0        0      158
 2024 298     3    18852     0.03     0.00       62     0.00     0.00      227        0        0      227
 2024 299     4    17183     0.04     0.00       79     0.00     0.00      290        0        0      291
 2024 300     5    16046     0.06     0.00       95     0.00     0.00      349        0        0      349
 2024 301     6    14642     0.08     0.00      110     0.00     0.00      403        0        0      403
 2024 302     7    13625     0.09     0.00      123     0.00     0.00      453        0        0      453
 2024 303     8    14261     0.11     0.00      138     0.00     0.00      505        0        0      506
 2024 304     9    14682     0.13     0.00      152     0.00     0.00      559        0        0      560
 2024 305    10    14089     0.14     0.00      166     0.00     0.00      611        0        0      611
 2024 306    11    13398     0.15     0.00      180     0.00     0.00      660        0        0      661
 2024 307    12    11466     0.16     0.00      191     0.00     0.00      702        0        0      703
 2024 308    13     9468     0.17     0.00      201     0.00     0.00      737        1        0      738
 2024 309    14     7078     0.17     0.00      208     0.00     0.00      763        1        0      764
 2024 310    15     5126     0.18     0.00      213     0.00     0.00      782        1        0      783
 2024 311    16     3040     0.18     0.00      216     0.00     0.00      793        1        0      794
 2024 312    17     3002     0.18     0.00      219     0.00     0.00      804        1        0      805
 2024 313    18     2453     0.18     0.00      222     0.00     0.00      813        1        0      814
 2024 314    19     1788     0.18     0.00      223     0.00     0.00      820        1        0      821
 2024 315    20     1179     0.18     0.00      224     0.00     0.00      824        1        0      825
 2024 316    21     1290     0.17     0.00      226     0.00     0.00      829        1        0      830
 2024 317    22      675     0.16     0.00      226     0.00     0.00      831        1        0      832
 2024 318    23      427     0.13     0.00      227     0.00     0.00      833        1        0      834
 2024 319    24      247     0.11     0.00      227     0.00     0.00      834        1        0      835
 2024 320    25      218     0.11     0.00      227     0.00     0.00      834        1        0      836
 2024 321    26      214     0.13     0.00      228     0.00     0.00      835        2        0      837
 2024 322    27      210     0.14     0.00      228     0.00     0.00      836        2        0      838
 2024 323    28      220     0.10     0.00      228     0.00     0.00      837        2        0      838
 2024 324    29      352     0.01     0.00      228     0.00     0.00      838        2        0      840
 2024 325    30      602     0.01     0.00      229     0.00     0.00      840        2        0      842
 2024 326    31      475     0.01     0.00      229     0.00     0.00      842        2        0      844
 2024 327    32      326     0.03     0.00      230     0.00     0.00      843        2        0      845
 2024 328    33      172     0.05     0.00      230     0.00     0.00      844        2        0      845
 2024 329    34      109     0.08     0.00      230     0.00     0.00      844        2        0      846
 2024 330    35       90     0.11     0.00      230     0.00     0.00      845        2        0      846
 2024 331    36      166     0.12     0.00      230     0.00     0.00      845        2        0      847
 2024 332    37      410     0.04     0.00      231     0.00     0.00      847        2        0      848
 2024 333    38     1125     0.07     0.00      232     0.00     0.00      851        2        0      853
 2024 334    39     2263     0.02     0.00      234     0.00     0.00      859        2        0      861
 2024 335    40      941     0.06     0.00      235     0.00     0.00      863        2        0      864
 2024 336    41      445     0.10     0.00      235     0.00     0.00      864        2        0      866
 2024 337    42      143     0.12     0.00      236     0.00     0.00      865        2        0      867
 2024 338    43       64     0.03     0.00      236     0.00     0.00      865        2        0      867
 2024 339    44       52     0.03     0.00      236     0.00     0.00      865        2        0      867
 2024 340    45       43     0.06     0.00      236     0.00     0.00      865        2        0      867
 2024 341    46       34     0.08     0.00      236     0.00     0.00      865        2        0      868
 2024 342    47       92     0.00     0.00      236     0.00     0.00      866        2        0      868
 2024 343    48      119     0.02     0.00      236     0.00     0.00      866        2        0      868
 2024 344    49       88     0.03     0.00      236     0.00     0.00      867        2        0      869
 2024 345    50       95     0.06     0.00      236     0.00     0.00      867        2        0      869
 2024 346    51       97     0.09     0.00      236     0.00     0.00      867        2        0      869
 2024 347    52       46     0.11     0.00      236     0.00     0.00      867        2        0      870
 2024 348    53       26     0.12     0.00      236     0.00     0.00      867        2        0      870
 2024 349    54       13     0.13     0.00      236     0.01     0.00      868        2        0      870
 2024 350    55        9     0.13     0.00      236     0.01     0.00      868        2        0      870
 2024 351    56       10     0.11     0.00      236     0.01     0.00      868        2        0      870
 2024 352    57       24     0.11     0.00      236     0.01     0.00      868        3        0      870
 2024 353    58       58     0.11     0.00      236     0.01     0.00      868        3        0      870
 2024 354    59      140     0.12     0.00      237     0.01     0.00      868        3        0      871
 2024 355    60      378     0.04     0.00      237     0.01     0.00      870        3        0      872
 2024 356    61      348     0.06     0.00      237     0.01     0.00      871        3        0      874
 2024 357    62      203     0.05     0.00      238     0.01     0.00      872        3        0      875
 2024 358    63      138     0.01     0.00      238     0.01     0.00      872        3        0      875
 2024 359    64       63     0.03     0.00      238     0.01     0.00      873        3        0      875
 2024 360    65       24     0.05     0.00      238     0.01     0.00      873        3        0      875
 2024 361    66       23     0.09     0.00      238     0.01     0.00      873        3        0      876
 2024 362    67       14     0.10     0.00      238     0.01     0.00      873        3        0      876
 2024 363    68        5     0.11     0.00      238     0.01     0.00      873        3        0      876
 2024 364    69        3     0.11     0.00      238     0.01     0.00      873        3        0      876
 2024 365    70        0     0.11     0.00      238     0.01     0.00      873        3        0      876
 2024 366    71        0     0.10     0.00      238     0.01     0.00      873        3        0      876
 2025 001    72        0     0.10     0.00      238     0.01     0.00      873        3        0      876
 2025 002    73        0     0.10     0.00      238     0.01     0.00      873        3        0      876
 2025 003    74        0     0.00     0.00      238     0.01     0.00      873        3        0      876
 2025 004    75        0     0.03     0.00      238     0.01     0.00      873        3        0      876
 2025 005    76        0     0.06     0.00      238     0.01     0.00      873        3        0      876
 2025 006    77        0     0.00     0.00      238     0.01     0.00      873        3        0      876
 2025 007    78        3     0.02     0.00      238     0.01     0.00      873        3        0      876
 2025 008    79        4     0.04     0.00      238     0.01     0.00      873        3        0      876
 2025 009    80       11     0.00     0.00      238     0.01     0.00      873        3        0      876
 2025 010    81       49     0.00     0.00      238     0.01     0.00      873        3        0      876
 2025 011    82       33     0.02     0.00      238     0.01     0.00      873        3        0      876
 2025 012    83        8     0.05     0.00      238     0.01     0.00      873        3        0      876
 2025 013    84        2     0.08     0.00      238     0.01     0.00      873        3        0      876
 2025 014    85        0     0.09     0.00      238     0.01     0.00      873        3        0      877
 2025 015    86        0     0.09     0.00      238     0.01     0.00      873        3        0      877
 2025 016    87        0     0.08     0.00      238     0.01     0.00      873        3        0      877
 2025 017    88        0     0.09     0.00      238     0.01     0.00      873        3        0      877
 2025 018    89        0     0.09     0.00      238     0.01     0.00      873        3        0      877
 2025 019    90        0     0.09     0.00      238     0.01     0.00      873        4        0      877
 2025 020    91        0     0.09     0.00      238     0.01     0.00      873        4        0      877
 2025 021    92        0     0.09     0.00      238     0.01     0.00      873        4        0      877
 2025 022    93        0     0.09     0.00      238     0.01     0.00      873        4        0      877
 2025 023    94        0     0.09     0.00      238     0.01     0.00      873        4        0      877
 2025 024    95        0     0.04     0.00      238     0.01     0.00      873        4        0      877
 2025 025    96        2     0.06     0.00      238     0.01     0.00      873        4        0      877
 2025 026    97       10     0.08     0.00      238     0.01     0.00      873        4        0      877
 2025 027    98       25     0.07     0.00      238     0.01     0.00      873        4        0      877
 2025 028    99      103     0.02     0.00      238     0.01     0.00      874        4        0      878
 2025 029   100      159     0.00     0.00      238     0.01     0.00      874        4        0      878
 2025 030   101      174     0.02     0.00      238     0.01     0.00      875        4        0      879
 2025 031   102       91     0.03     0.00      238     0.01     0.00      875        4        0      879
 2025 032   103       47     0.04     0.00      239     0.01     0.00      875        4        0      879
 2025 033   104       10     0.07     0.00      239     0.01     0.00      875        4        0      879
 2025 034   105        3     0.08     0.00      239     0.01     0.00      875        4        0      879
 2025 035   106        0     0.08     0.00      239     0.01     0.00      875        4        0      879
 2025 036   107        0     0.08     0.00      239     0.01     0.00      875        4        0      879
 2025 037   108        0     0.08     0.00      239     0.01     0.00      875        4        0      880
 2025 038   109        0     0.08     0.00      239     0.01     0.00      875        4        0      880
 2025 039   110        0     0.08     0.00      239     0.01     0.00      875        4        0      880
 2025 040   111        0     0.08     0.00      239     0.01     0.00      875        4        0      880
 2025 041   112        0     0.07     0.00      239     0.01     0.00      875        4        0      880
 2025 042   113        0     0.07     0.00      239     0.01     0.00      875        4        0      880
 2025 043   114        0     0.01     0.00      239     0.01     0.00      875        4        0      880
 2025 044   115        2     0.00     0.00      239     0.01     0.00      875        4        0      880
 2025 045   116        1     0.00     0.00      239     0.01     0.00      876        4        0      880
 2025 046   117        0     0.02     0.00      239     0.01     0.00      876        4        0      880
 2025 047   118        0     0.04     0.00      239     0.01     0.00      876        4        0      880
 2025 048   119        0     0.06     0.00      239     0.01     0.00      876        4        0      880
 2025 049   120        0     0.07     0.00      239     0.01     0.00      876        4        0      880
 2025 050   121        0     0.07     0.00      239     0.01     0.00      876        4        0      880
 2025 051   122        0     0.07     0.00      239     0.01     0.00      876        4        0      880
 2025 052   123        0     0.07     0.00      239     0.01     0.00      876        4        0      880
 2025 053   124        0     0.07     0.00      239     0.01     0.00      876        4        0      880
 2025 054   125        0     0.07     0.00      239     0.01     0.00      876        4        0      880
 2025 055   126        5     0.07     0.00      239     0.01     0.00      876        5        0      880
 2025 056   127      110     0.07     0.00      239     0.01     0.00      876        5        0      880
 2025 057   128     1447     0.07     0.00      240     0.01     0.00      881        5        0      886
 2025 058   129      346     0.06     0.00      240     0.01     0.00      883        5        0      887
 2025 059   130      161     0.04     0.00      241     0.01     0.00      883        5        0      888
 2025 060   131       29     0.03     0.00      241     0.01     0.00      883        5        0      888
 2025 061   132        6     0.05     0.00      241     0.01     0.00      883        5        0      888
 2025 062   133        0     0.06     0.00      241     0.01     0.00      883        5        0      888
 2025 063   134        0     0.07     0.00      241     0.01     0.00      883        5        0      888
 2025 064   135        1     0.06     0.00      241     0.01     0.00      883        5        0      888
 2025 065   136        7     0.06     0.00      241     0.01     0.00      883        5        0      888
 2025 066   137       57     0.78     0.00      241     0.01     0.00      883        5        0      889
 2025 067   138      820     1.44     0.00      242     0.01     0.00      886        6        0      892
 2025 068   139     2720     1.98     0.00      244     0.01     0.00      896        7        0      903
 2025 069   140     4061     2.39     0.00      248     0.02     0.00      911        8        0      919
 2025 070   141     5035     2.67     0.00      253     0.02     0.00      930        9        0      939
 2025 071   142     4896     2.93     0.00      258     0.02     0.00      948       10        0      958
 2025 072   143     4179     2.94     0.00      262     0.03     0.00      963       12        0      975
 2025 073   144     2440     2.63     0.00      265     0.03     0.00      972       13        0      985
 2025 074   145      865     2.62     0.00      266     0.03     0.00      975       14        0      990
 2025 075   146       72     2.84     0.00      266     0.03     0.00      976       16        0      991
 2025 076   147       17     2.80     0.00      266     0.04     0.00      976       17        0      993
 2025 077   148        2     2.65     0.00      266     0.04     0.00      976       18        0      994
 2025 078   149        0     2.51     0.00      266     0.04     0.00      976       19        0      995
 2025 079   150        0     2.38     0.00      266     0.04     0.00      976       20        0      996
 2025 080   151        3     2.28     0.00      266     0.05     0.00      976       22        0      997
 2025 081   152       63     2.20     0.00      266     0.05     0.00      976       23        0      998
 2025 082   153     1972     2.11     0.00      268     0.05     0.00      983       24        0     1007
 2025 083   154     4838     1.79     0.00      273     0.05     0.00     1001       24        0     1025
 2025 084   155     6533     0.21     0.00      279     0.05     0.00     1025       25        0     1049
 2025 085   156     7228     0.62     0.00      286     0.05     0.00     1051       25        0     1076
 2025 086   157     6078     0.58     0.00      293     0.05     0.00     1074       25        0     1099
 2025 087   158     5264     1.10     0.00      298     0.05     0.00     1093       26        0     1119
 2025 088   159     4796     1.63     0.00      303     0.06     0.00     1111       26        0     1137
 2025 089   160     4385     1.46     0.00      307     0.06     0.00     1127       27        0     1154
 2025 090   161     3076     1.44     0.00      310     0.06     0.00     1138       28        0     1166
 2025 091   162     2615     1.29     0.00      313     0.06     0.00     1148       28        0     1176
 2025 092   163     2105     1.35     0.00      315     0.06     0.00     1155       29        0     1184
 2025 093   164     2502     1.82     0.00      317     0.06     0.00     1164       30        0     1194
 2025 094   165     3094     2.13     0.00      320     0.07     0.00     1176       31        0     1207
 2025 095   166     4176     2.38     0.00      325     0.07     0.00     1191       32        0     1223
 2025 096   167     5169     2.59     0.00      330     0.07     0.00     1210       33        0     1243
 2025 097   168     4078     2.71     0.00      334     0.07     0.00     1225       34        0     1259
 2025 098   169     2723     2.67     0.00      337     0.08     0.00     1235       36        0     1271
 2025 099   170     1626     2.55     0.00      338     0.08     0.00     1241       37        0     1278
 2025 100   171      737     2.44     0.00      339     0.08     0.00     1244       38        0     1282
 2025 101   172      187     2.27     0.00      339     0.08     0.00     1244       39        0     1283
 2025 102   173     1156     2.11     0.00      340     0.09     0.00     1249       40        0     1289
 2025 103   174     2386     1.95     0.00      343     0.09     0.00     1257       41        0     1298
 2025 104   175     3193     1.77     0.00      346     0.09     0.00     1269       42        0     1311
 2025 105   176     4558     1.56     0.00      350     0.09     0.00     1286       42        0     1328
 2025 106   177     5506     1.53     0.00      356     0.09     0.00     1306       43        0     1349
 2025 107   178     6363     1.49     0.00      362     0.09     0.00     1329       44        0     1373
 2025 108   179     6504     1.34     0.00      369     0.10     0.00     1353       45        0     1398
 2025 109   180     5975     1.23     0.00      375     0.10     0.00     1375       45        0     1420
 2025 110   181     5324     1.15     0.00      380     0.10     0.00     1395       46        0     1440
 2025 111   182     5221     1.01     0.00      385     0.10     0.00     1414       46        0     1460
 2025 112   183     4141     0.92     0.00      389     0.10     0.00     1429       47        0     1476
 2025 113   184     3914     0.84     0.00      393     0.10     0.00     1443       47        0     1490
 2025 114   185     6219     0.34     0.00      400     0.10     0.00     1466       47        0     1513
 2025 115   186     6730     0.17     0.00      406     0.10     0.00     1491       47        0     1538
 2025 116   187     6166     0.19     0.00      412     0.10     0.00     1514       47        0     1561
 2025 117   188     5970     0.36     0.00      418     0.10     0.00     1536       47        0     1583
 2025 118   189     6137     0.55     0.00      425     0.10     0.00     1558       48        0     1606
 2025 119   190     5939     0.53     0.00      430     0.10     0.00     1580       48        0     1628
 2025 120   191     6510     0.48     0.00      437     0.10     0.00     1604       48        0     1652
 2025 121   192     6991     0.44     0.00      444     0.10     0.00     1629       48        0     1678
 2025 122   193     7919     0.40     0.00      452     0.10     0.00     1658       49        0     1707
 2025 123   194     8147     0.38     0.00      460     0.10     0.00     1688       49        0     1737
 2025 124   195    11174     0.09     0.00      471     0.10     0.00     1729       49        0     1778
 2025 125   196    11064     0.02     0.00      482     0.10     0.00     1770       49        0     1819
 2025 126   197    10536     0.12     0.00      493     0.10     0.00     1809       49        0     1858
 2025 127   198     8675     0.21     0.00      501     0.10     0.00     1840       49        0     1889
 2025 128   199     6936     0.26     0.00      508     0.10     0.00     1866       49        0     1915
 2025 129   200     5757     0.27     0.00      514     0.11     0.00     1887       49        0     1936
 2025 130   201     5454     0.24     0.00      520     0.11     0.00     1907       49        0     1956
 2025 131   202     5495     0.22     0.00      525     0.11     0.00     1927       49        0     1977
 2025 132   203     5659     0.21     0.00      531     0.11     0.00     1948       50        0     1998
 2025 133   204     5805     0.99     0.00      537     0.11     0.00     1969       50        0     2019
 2025 134   205     5649     1.51     0.00      542     0.11     0.00     1990       51        0     2041
 2025 135   206     5614     1.81     0.00      548     0.11     0.00     2011       52        0     2062
 2025 136   207     5199     1.95     0.00      553     0.11     0.00     2030       52        0     2082
 2025 137   208     4524     1.92     0.00      558     0.11     0.00     2046       53        0     2100
 2025 138   209     3938     1.83     0.00      562     0.12     0.00     2061       54        0     2115
 2025 139   210     3548     1.72     0.00      565     0.12     0.00     2074       55        0     2129
 2025 140   211     3132     1.59     0.00      568     0.12     0.00     2085       56        0     2141
 2025 141   212     2817     1.48     0.00      571     0.12     0.00     2096       56        0     2152
 2025 142   213     3358     1.21     0.00      574     0.12     0.00     2108       57        0     2165
 2025 143   214     2840     1.15     0.00      577     0.12     0.00     2118       58        0     2176
 2025 144   215     2437     1.04     0.00      580     0.12     0.00     2127       58        0     2185
 2025 145   216     2032     0.95     0.00      582     0.12     0.00     2135       58        0     2193
 2025 146   217     2668     0.70     0.00      584     0.13     0.00     2145       59        0     2203
 2025 147   218     2786     0.62     0.00      587     0.13     0.00     2155       59        0     2214
 2025 148   219     2520     0.58     0.00      590     0.13     0.00     2164       59        0     2223
 2025 149   220     3044     0.51     0.00      593     0.13     0.00     2175       60        0     2235
 2025 150   221     3281     0.46     0.00      596     0.13     0.00     2187       60        0     2247
 2025 151   222     3197     0.44     0.00      599     0.13     0.00     2199       60        0     2259
 2025 152   223     2679     0.45     0.00      602     0.13     0.00     2209       60        0     2269
 2025 153   224     3500     0.37     0.00      605     0.13     0.00     2222       60        0     2282
 2025 154   225     6545     0.18     0.00      612     0.13     0.00     2246       60        0     2306
 2025 155   226     7223     0.28     0.00      619     0.13     0.00     2272       61        0     2333
 2025 156   227     7195     0.26     0.00      626     0.13     0.00     2299       61        0     2359
 2025 157   228     6090     0.24     0.00      632     0.13     0.00     2321       61        0     2382
 2025 158   229     6342     0.17     0.00      639     0.13     0.00     2344       61        0     2405
 2025 159   230     6525     0.21     0.00      645     0.13     0.00     2368       61        0     2429
 2025 160   231     5985     0.18     0.00      651     0.13     0.00     2390       61        0     2451
 2025 161   232     4961     0.19     0.00      656     0.13     0.00     2408       61        0     2470
 2025 162   233     3133     0.20     0.00      659     0.13     0.00     2420       61        0     2481
 2025 163   234     2180     0.21     0.00      662     0.13     0.00     2428       61        0     2489
 2025 164   235     1790     0.21     0.00      663     0.13     0.00     2434       61        0     2496
 2025 165   236     1888     0.20     0.00      665     0.13     0.00     2441       62        0     2503
 2025 166   237     2143     0.19     0.00      667     0.13     0.00     2449       62        0     2511
 2025 167   238     4657     0.14     0.00      672     0.13     0.00     2466       62        0     2528
 2025 168   239     3470     0.15     0.00      675     0.13     0.00     2479       62        0     2541
 2025 169   240     2425     0.17     0.00      678     0.13     0.00     2488       62        0     2550
 2025 170   241     2349     0.16     0.00      680     0.13     0.00     2497       62        0     2559
 2025 171   242     2231     0.16     0.00      682     0.13     0.00     2505       62        0     2567
 2025 172   243     2120     0.15     0.00      685     0.13     0.00     2513       62        0     2575
 2025 173   244     2125     0.15     0.00      687     0.13     0.00     2520       62        0     2583
 2025 174   245     2191     0.15     0.00      689     0.13     0.00     2528       62        0     2591
 2025 175   246     2201     0.14     0.00      691     0.13     0.00     2536       62        0     2599
 2025 176   247     2155     0.14     0.00      693     0.13     0.00     2544       62        0     2607
 2025 177   248     2241     0.14     0.00      696     0.13     0.00     2553       62        0     2615
 2025 178   249     2310     0.13     0.00      698     0.13     0.00     2561       63        0     2624
 2025 179   250     3598     0.11     0.00      701     0.13     0.00     2574       63        0     2637
 2025 180   251     2813     0.13     0.00      704     0.13     0.00     2585       63        0     2647
 2025 181   252     2613     0.13     0.00      707     0.13     0.00     2594       63        0     2657
 2025 182   253     2633     0.13     0.00      709     0.13     0.00     2604       63        0     2667
 2025 183   254     3814     0.12     0.00      713     0.13     0.00     2618       63        0     2681
 2025 184   255     2846     0.14     0.00      716     0.13     0.00     2628       63        0     2691
 2025 185   256     2736     0.14     0.00      719     0.13     0.00     2638       63        0     2701
 2025 186   257     2616     0.14     0.00      722     0.13     0.00     2648       63        0     2711
 2025 187   258     2439     0.14     0.00      724     0.13     0.00     2657       63        0     2720
 2025 188   259     2274     0.13     0.00      726     0.13     0.00     2665       63        0     2728
 2025 189   260     2192     0.13     0.00      728     0.13     0.00     2673       63        0     2736
 2025 190   261     2346     0.13     0.00      731     0.14     0.00     2682       63        0     2745
 2025 191   262     2080     0.13     0.00      733     0.14     0.00     2690       63        0     2753
 2025 192   263     1941     0.13     0.00      735     0.14     0.00     2697       63        0     2760
 2025 193   264     1853     0.13     0.00      737     0.14     0.00     2703       63        0     2767
 2025 194   265     1818     0.13     0.00      738     0.14     0.00     2710       63        0     2774
 2025 195   266     1931     0.13     0.00      740     0.14     0.00     2717       64        0     2781
 2025 196   267     4314     0.10     0.00      745     0.14     0.00     2733       64        0     2797
 2025 197   268     4181     0.11     0.00      749     0.14     0.00     2748       64        0     2812
 2025 198   269     6511     0.01     0.00      755     0.14     0.00     2772       64        0     2836
 2025 199   270     6958     0.06     0.00      762     0.14     0.00     2798       64        0     2861
 2025 200   271     6623     0.15     0.00      769     0.14     0.00     2822       64        0     2886
 2025 201   272     6516     0.15     0.00      775     0.14     0.00     2846       64        0     2910
 2025 202   273     6562     0.16     0.00      782     0.14     0.00     2870       64        0     2934
 2025 203   274     6553     0.01     0.00      789     0.14     0.00     2894       64        0     2958
 2025 204   275     7613     0.02     0.00      796     0.14     0.00     2922       64        0     2986
 2025 205   276     8310     0.12     0.00      805     0.14     0.00     2953       64        0     3017
 2025 206   277     7962     0.06     0.00      812     0.14     0.00     2982       64        0     3046
 2025 207   278     7283     0.03     0.00      820     0.14     0.00     3009       64        0     3073
 2025 208   279     7047     0.02     0.00      827     0.14     0.00     3034       64        0     3098
 2025 209   280     7165     0.03     0.00      834     0.14     0.00     3061       64        0     3125
 2025 210   281     6826     0.02     0.00      841     0.14     0.00     3086       64        0     3150
 2025 211   282     7010     0.09     0.00      848     0.14     0.00     3111       64        0     3176
 2025 212   283     6746     0.11     0.00      855     0.14     0.00     3136       64        0     3200
 2025 213   284     6634     0.18     0.00      861     0.14     0.00     3161       64        0     3225
 2025 214   285     6260     0.04     0.00      867     0.14     0.00     3184       64        0     3248
 2025 215   286     6005     0.03     0.00      873     0.14     0.00     3206       64        0     3270
 2025 216   287     6042     0.12     0.00      880     0.14     0.00     3228       64        0     3292
 2025 217   288     6145     0.11     0.00      886     0.14     0.00     3250       64        0     3315
 2025 218   289     6693     0.30     0.00      892     0.14     0.00     3275       64        0     3339
 2025 219   290     6583     0.48     0.00      899     0.14     0.00     3299       65        0     3364
 2025 220   291     6465     0.50     0.00      905     0.14     0.00     3323       65        0     3388
 2025 221   292     6940     0.51     0.00      912     0.14     0.00     3348       65        0     3413
