*INFO DETAIL FILE

******************************************************************************

*DSSAT Cropping System Model Ver. 4.8.2.000 -release  DEC 15, 2025 04:12:05

*RUN   1        : No N                               HWOC2501    1

 EXPERIMENT     : HWOC2501 WH
 DATA PATH      : C:/DSSAT48/Wheat/
 TREATMENT  1   : No N
  

 MAKEFW  YEAR DOY =    0   0
 Y4KDOY - Weather file                                                         
 Not able to find 7-digits first weather date                                  
 Set simulation to 5-digits first weather date                                 

 CSM     YEAR DOY = 2024 296
 RNMODE = B                                                                    
 PATHEX = C:/DSSAT48/Wheat/                                                    
 FILEX  = HWOC2501.WHX                                                         
 FILEB  = DSSBatch.V48                                                         
 FILEIO = DSSAT48.INP                                                          
 MODEL  = WHAPS048                                                             
 TRTNUM =     1                                                                

 SOILDYN  YEAR DOY = 2024 296
 The soil file has missing or invalid data.                                    
 Default values have been used for these variables:                            
   CEC, ADCOEF, SAEA                                                           
 These defaults may or may not be important to your results.                   

 RETC  YEAR DOY = 2024 296
 Soil RETC parameters:                                                         
  LYR DS  SWCN   WCR    Hb Lambd  Alpha     m     n Texture                    
   1   5-99.00 0.022   0.9 0.329  0.039 0.299 1.426 SandyLoam                  
   2  15-99.00 0.022   0.9 0.329  0.039 0.299 1.426 SandyLoam                  
   3  30-99.00 0.022   0.9 0.329  0.039 0.299 1.426 SandyLoam                  
   4  45-99.00 0.032   0.7 0.270  0.048 0.256 1.344 SandyLoam                  
   5  60-99.00 0.032   0.7 0.270  0.048 0.256 1.344 SandyLoam                  
   6  90-99.00 0.055   0.5 0.177  0.069 0.180 1.220 SandyLoam                  
   7 120-99.00 0.062   0.5 0.160  0.072 0.164 1.196 SandyLoam                  
   8 150-99.00 0.060   0.5 0.170  0.065 0.170 1.205 SandyLoam                  
   9 180-99.00 0.060   0.6 0.171  0.064 0.171 1.206 SandyLoam                  
  10 210-99.00 0.060   0.6 0.171  0.064 0.171 1.206 SandyLoam                  

 SETPM     YEAR DOY = 2024 296
 Simulating flat surface with no plastic mulch.                                                                               

 SOILDYN  YEAR DOY = 2024 296
 Soil ID: IB00000007                                                           
 DEFAULT - DEEP SANDY LOAM                                                     
 GENERIC                                                                       
   SALB SWCON    CN  DMOD  SLPF SMPX                                           
   0.13  0.50  68.0  1.00  1.00 IB001                                          
 Soil layer distribution method: 2                                             
      DS DLAYR    LL   DUL   SAT  Root    BD    OC  CLAY  SILT  SAND           
 LYR  cm    cm  frac  frac  frac  Grow g/cm3     %     %     %     %    pH     
   1   5     5 0.052 0.176 0.359 1.000  1.61  0.70  10.0  30.0  60.0   6.5     
   2  15    10 0.052 0.176 0.359 1.000  1.61  0.70  10.0  30.0  60.0   6.5     
   3  30    15 0.052 0.176 0.359 0.638  1.61  0.66  10.0  30.0  60.0   6.5     
   4  45    15 0.073 0.192 0.360 0.472  1.61  0.58  10.0  30.0  60.0   6.5     
   5  60    15 0.073 0.192 0.360 0.350  1.61  0.58  10.0  30.0  60.0   6.5     
   6  90    30 0.128 0.232 0.361 0.223  1.61  0.43  10.0  30.0  60.0   6.5     
   7 120    30 0.143 0.243 0.359 0.122  1.62  0.26  10.0  30.0  60.0   6.5     
   8 150    30 0.138 0.243 0.360 0.067  1.62  0.12  10.0  30.0  60.0   6.5     
   9 180    30 0.138 0.244 0.361 0.037  1.62  0.04  10.0  30.0  60.0   6.5     
  10 210    30 0.138 0.244 0.361 0.020  1.62  0.01  10.0  30.0  60.0   6.5     

 SOILDYN  YEAR DOY = 2024 296
 Additional soil properties                                                    
                Convert                                                        
    Cation Adsrp  ppm /  SLCF  TOTN  OrgN                                      
   L  Exch  Coef  kg/ha     %     % kg/ha                                      
   1  15.5   0.0   1.24   0.0  0.07   562                                      
   2  15.5   0.0   0.62   0.0  0.07  1124                                      
   3  15.5   0.0   0.41   0.0  0.07  1687                                      
   4  15.5   0.0   0.41   0.0  0.06  1445                                      
   5  15.5   0.0   0.41   0.0  0.06  1445                                      
   6  15.5   0.0   0.21   0.0  0.04  1924                                      
   7  15.5   0.0   0.21   0.0  0.03  1450                                      
   8  15.5   0.0   0.21   0.0  0.01   478                                      
   9  15.5   0.0   0.21   0.0  0.00   -99                                      
  10  15.5   0.0   0.21   0.0  0.00   -99                                      

 IPWTH   YEAR DOY = 2024 296
 LL912401.WTH                                                                  
 Found daily weather data headers for:                                         
   SRAD           Col   7 -  11                                                
   TMAX           Col  13 -  17                                                
   TMIN           Col  19 -  23                                                
   RAIN           Col  25 -  29                                                
   DEWP           Col  31 -  35                                                
   WIND           Col  37 -  41                                                
   PAR            Col  43 -  47                                                
   RHUM           Col  55 -  59                                                

 CO2VAL  YEAR DOY = 2024 296
  784 CO2 data points read from file.                                          
 C:\DSSAT48\StandardData\CO2048.WDA                                            

 TILEVENT  YEAR DOY = 2024 296
              -- Lyr Thick (cm)--  --Blk dens (g/cm3)- ---- SOM-BD --------    
                DL1    DL2    DL3    BD1    BD2    BD3   BDS1   BDS2   BDS3    
 Before till  5.000 10.000 15.000  1.610  1.610  1.610  1.610  1.610  1.610    
 After till   5.278 10.000 15.000  1.525  1.610  1.610                         

 TILEVENT  YEAR DOY = 2024 297
              -- Lyr Thick (cm)--  --Blk dens (g/cm3)- ---- SOM-BD --------    
                DL1    DL2    DL3    BD1    BD2    BD3   BDS1   BDS2   BDS3    
 Before till  5.261 10.000 15.000  1.530  1.610  1.610  1.610  1.610  1.610    
 After till   5.278 10.000 15.000  1.487  1.610  1.610                         

 ENDRUN  YEAR DOY = 2025 203
 Normal end of run        1                                                    

******************************************************************************

*DSSAT Cropping System Model Ver. 4.8.2.000 -release  DEC 15, 2025 04:12:05

*RUN   2        : 147 kg[N]/ha - broadcast  WHAPS048 HWOC2501    3
 MODEL          : WHAPS048 - Wheat
 EXPERIMENT     : HWOC2501 WH
 DATA PATH      : C:/DSSAT48/Wheat/
 TREATMENT  3   : 147 kg[N]/ha - broadcast  WHAPS048
  

 CSM     YEAR DOY = 2024 296
 RNMODE = B                                                                    
 PATHEX = C:/DSSAT48/Wheat/                                                    
 FILEX  = HWOC2501.WHX                                                         
 FILEB  = DSSBatch.V48                                                         
 FILEIO = DSSAT48.INP                                                          
 MODEL  = WHAPS048                                                             
 TRTNUM =     3                                                                

 SOILDYN  YEAR DOY = 2024 296
 The soil file has missing or invalid data.                                    
 Default values have been used for these variables:                            
   CEC, ADCOEF, SAEA                                                           
 These defaults may or may not be important to your results.                   

 RETC  YEAR DOY = 2024 296
 Soil RETC parameters:                                                         
  LYR DS  SWCN   WCR    Hb Lambd  Alpha     m     n Texture                    
   1   5-99.00 0.022   0.9 0.329  0.039 0.299 1.426 SandyLoam                  
   2  15-99.00 0.022   0.9 0.329  0.039 0.299 1.426 SandyLoam                  
   3  30-99.00 0.022   0.9 0.329  0.039 0.299 1.426 SandyLoam                  
   4  45-99.00 0.032   0.7 0.270  0.048 0.256 1.344 SandyLoam                  
   5  60-99.00 0.032   0.7 0.270  0.048 0.256 1.344 SandyLoam                  
   6  90-99.00 0.055   0.5 0.177  0.069 0.180 1.220 SandyLoam                  
   7 120-99.00 0.062   0.5 0.160  0.072 0.164 1.196 SandyLoam                  
   8 150-99.00 0.060   0.5 0.170  0.065 0.170 1.205 SandyLoam                  
   9 180-99.00 0.060   0.6 0.171  0.064 0.171 1.206 SandyLoam                  
  10 210-99.00 0.060   0.6 0.171  0.064 0.171 1.206 SandyLoam                  

 SETPM     YEAR DOY = 2024 296
 Simulating flat surface with no plastic mulch.                                                                               

 SOILDYN  YEAR DOY = 2024 296
 Soil ID: IB00000007                                                           
 DEFAULT - DEEP SANDY LOAM                                                     
 GENERIC                                                                       
   SALB SWCON    CN  DMOD  SLPF SMPX                                           
   0.13  0.50  68.0  1.00  1.00 IB001                                          
 Soil layer distribution method: 2                                             
      DS DLAYR    LL   DUL   SAT  Root    BD    OC  CLAY  SILT  SAND           
 LYR  cm    cm  frac  frac  frac  Grow g/cm3     %     %     %     %    pH     
   1   5     5 0.052 0.176 0.359 1.000  1.61  0.70  10.0  30.0  60.0   6.5     
   2  15    10 0.052 0.176 0.359 1.000  1.61  0.70  10.0  30.0  60.0   6.5     
   3  30    15 0.052 0.176 0.359 0.638  1.61  0.66  10.0  30.0  60.0   6.5     
   4  45    15 0.073 0.192 0.360 0.472  1.61  0.58  10.0  30.0  60.0   6.5     
   5  60    15 0.073 0.192 0.360 0.350  1.61  0.58  10.0  30.0  60.0   6.5     
   6  90    30 0.128 0.232 0.361 0.223  1.61  0.43  10.0  30.0  60.0   6.5     
   7 120    30 0.143 0.243 0.359 0.122  1.62  0.26  10.0  30.0  60.0   6.5     
   8 150    30 0.138 0.243 0.360 0.067  1.62  0.12  10.0  30.0  60.0   6.5     
   9 180    30 0.138 0.244 0.361 0.037  1.62  0.04  10.0  30.0  60.0   6.5     
  10 210    30 0.138 0.244 0.361 0.020  1.62  0.01  10.0  30.0  60.0   6.5     

 SOILDYN  YEAR DOY = 2024 296
 Additional soil properties                                                    
                Convert                                                        
    Cation Adsrp  ppm /  SLCF  TOTN  OrgN                                      
   L  Exch  Coef  kg/ha     %     % kg/ha                                      
   1  15.5   0.0   1.24   0.0  0.07   562                                      
   2  15.5   0.0   0.62   0.0  0.07  1124                                      
   3  15.5   0.0   0.41   0.0  0.07  1687                                      
   4  15.5   0.0   0.41   0.0  0.06  1445                                      
   5  15.5   0.0   0.41   0.0  0.06  1445                                      
   6  15.5   0.0   0.21   0.0  0.04  1924                                      
   7  15.5   0.0   0.21   0.0  0.03  1450                                      
   8  15.5   0.0   0.21   0.0  0.01   478                                      
   9  15.5   0.0   0.21   0.0  0.00   -99                                      
  10  15.5   0.0   0.21   0.0  0.00   -99                                      

 IPWTH   YEAR DOY = 2024 296
 LL912401.WTH                                                                  
 Found daily weather data headers for:                                         
   SRAD           Col   7 -  11                                                
   TMAX           Col  13 -  17                                                
   TMIN           Col  19 -  23                                                
   RAIN           Col  25 -  29                                                
   DEWP           Col  31 -  35                                                
   WIND           Col  37 -  41                                                
   PAR            Col  43 -  47                                                
   RHUM           Col  55 -  59                                                

 TILEVENT  YEAR DOY = 2024 296
              -- Lyr Thick (cm)--  --Blk dens (g/cm3)- ---- SOM-BD --------    
                DL1    DL2    DL3    BD1    BD2    BD3   BDS1   BDS2   BDS3    
 Before till  5.000 10.000 15.000  1.610  1.610  1.610  1.610  1.610  1.610    
 After till   5.278 10.000 15.000  1.525  1.610  1.610                         

 TILEVENT  YEAR DOY = 2024 297
              -- Lyr Thick (cm)--  --Blk dens (g/cm3)- ---- SOM-BD --------    
                DL1    DL2    DL3    BD1    BD2    BD3   BDS1   BDS2   BDS3    
 Before till  5.261 10.000 15.000  1.530  1.610  1.610  1.610  1.610  1.610    
 After till   5.278 10.000 15.000  1.487  1.610  1.610                         

 ENDRUN  YEAR DOY = 2025 203
 Normal end of run        2                                                    

******************************************************************************

*DSSAT Cropping System Model Ver. 4.8.2.000 -release  DEC 15, 2025 04:12:05

*RUN   3        : 180 kg[N]/ha - broadcast  WHAPS048 HWOC2501    7
 MODEL          : WHAPS048 - Wheat
 EXPERIMENT     : HWOC2501 WH
 DATA PATH      : C:/DSSAT48/Wheat/
 TREATMENT  7   : 180 kg[N]/ha - broadcast  WHAPS048
  

 CSM     YEAR DOY = 2024 296
 RNMODE = B                                                                    
 PATHEX = C:/DSSAT48/Wheat/                                                    
 FILEX  = HWOC2501.WHX                                                         
 FILEB  = DSSBatch.V48                                                         
 FILEIO = DSSAT48.INP                                                          
 MODEL  = WHAPS048                                                             
 TRTNUM =     7                                                                

 SOILDYN  YEAR DOY = 2024 296
 The soil file has missing or invalid data.                                    
 Default values have been used for these variables:                            
   CEC, ADCOEF, SAEA                                                           
 These defaults may or may not be important to your results.                   

 RETC  YEAR DOY = 2024 296
 Soil RETC parameters:                                                         
  LYR DS  SWCN   WCR    Hb Lambd  Alpha     m     n Texture                    
   1   5-99.00 0.022   0.9 0.329  0.039 0.299 1.426 SandyLoam                  
   2  15-99.00 0.022   0.9 0.329  0.039 0.299 1.426 SandyLoam                  
   3  30-99.00 0.022   0.9 0.329  0.039 0.299 1.426 SandyLoam                  
   4  45-99.00 0.032   0.7 0.270  0.048 0.256 1.344 SandyLoam                  
   5  60-99.00 0.032   0.7 0.270  0.048 0.256 1.344 SandyLoam                  
   6  90-99.00 0.055   0.5 0.177  0.069 0.180 1.220 SandyLoam                  
   7 120-99.00 0.062   0.5 0.160  0.072 0.164 1.196 SandyLoam                  
   8 150-99.00 0.060   0.5 0.170  0.065 0.170 1.205 SandyLoam                  
   9 180-99.00 0.060   0.6 0.171  0.064 0.171 1.206 SandyLoam                  
  10 210-99.00 0.060   0.6 0.171  0.064 0.171 1.206 SandyLoam                  

 SETPM     YEAR DOY = 2024 296
 Simulating flat surface with no plastic mulch.                                                                               

 SOILDYN  YEAR DOY = 2024 296
 Soil ID: IB00000007                                                           
 DEFAULT - DEEP SANDY LOAM                                                     
 GENERIC                                                                       
   SALB SWCON    CN  DMOD  SLPF SMPX                                           
   0.13  0.50  68.0  1.00  1.00 IB001                                          
 Soil layer distribution method: 2                                             
      DS DLAYR    LL   DUL   SAT  Root    BD    OC  CLAY  SILT  SAND           
 LYR  cm    cm  frac  frac  frac  Grow g/cm3     %     %     %     %    pH     
   1   5     5 0.052 0.176 0.359 1.000  1.61  0.70  10.0  30.0  60.0   6.5     
   2  15    10 0.052 0.176 0.359 1.000  1.61  0.70  10.0  30.0  60.0   6.5     
   3  30    15 0.052 0.176 0.359 0.638  1.61  0.66  10.0  30.0  60.0   6.5     
   4  45    15 0.073 0.192 0.360 0.472  1.61  0.58  10.0  30.0  60.0   6.5     
   5  60    15 0.073 0.192 0.360 0.350  1.61  0.58  10.0  30.0  60.0   6.5     
   6  90    30 0.128 0.232 0.361 0.223  1.61  0.43  10.0  30.0  60.0   6.5     
   7 120    30 0.143 0.243 0.359 0.122  1.62  0.26  10.0  30.0  60.0   6.5     
   8 150    30 0.138 0.243 0.360 0.067  1.62  0.12  10.0  30.0  60.0   6.5     
   9 180    30 0.138 0.244 0.361 0.037  1.62  0.04  10.0  30.0  60.0   6.5     
  10 210    30 0.138 0.244 0.361 0.020  1.62  0.01  10.0  30.0  60.0   6.5     

 SOILDYN  YEAR DOY = 2024 296
 Additional soil properties                                                    
                Convert                                                        
    Cation Adsrp  ppm /  SLCF  TOTN  OrgN                                      
   L  Exch  Coef  kg/ha     %     % kg/ha                                      
   1  15.5   0.0   1.24   0.0  0.07   562                                      
   2  15.5   0.0   0.62   0.0  0.07  1124                                      
   3  15.5   0.0   0.41   0.0  0.07  1687                                      
   4  15.5   0.0   0.41   0.0  0.06  1445                                      
   5  15.5   0.0   0.41   0.0  0.06  1445                                      
   6  15.5   0.0   0.21   0.0  0.04  1924                                      
   7  15.5   0.0   0.21   0.0  0.03  1450                                      
   8  15.5   0.0   0.21   0.0  0.01   478                                      
   9  15.5   0.0   0.21   0.0  0.00   -99                                      
  10  15.5   0.0   0.21   0.0  0.00   -99                                      

 IPWTH   YEAR DOY = 2024 296
 LL912401.WTH                                                                  
 Found daily weather data headers for:                                         
   SRAD           Col   7 -  11                                                
   TMAX           Col  13 -  17                                                
   TMIN           Col  19 -  23                                                
   RAIN           Col  25 -  29                                                
   DEWP           Col  31 -  35                                                
   WIND           Col  37 -  41                                                
   PAR            Col  43 -  47                                                
   RHUM           Col  55 -  59                                                

 TILEVENT  YEAR DOY = 2024 296
              -- Lyr Thick (cm)--  --Blk dens (g/cm3)- ---- SOM-BD --------    
                DL1    DL2    DL3    BD1    BD2    BD3   BDS1   BDS2   BDS3    
 Before till  5.000 10.000 15.000  1.610  1.610  1.610  1.610  1.610  1.610    
 After till   5.278 10.000 15.000  1.525  1.610  1.610                         

 TILEVENT  YEAR DOY = 2024 297
              -- Lyr Thick (cm)--  --Blk dens (g/cm3)- ---- SOM-BD --------    
                DL1    DL2    DL3    BD1    BD2    BD3   BDS1   BDS2   BDS3    
 Before till  5.261 10.000 15.000  1.530  1.610  1.610  1.610  1.610  1.610    
 After till   5.278 10.000 15.000  1.487  1.610  1.610                         

 ENDRUN  YEAR DOY = 2025 203
 Normal end of run        3                                                    
