*N2O emissions output file

*DSSAT Cropping System Model Ver. 4.8.2.000 -release  JAN 19, 2026 13:40:14

*RUN   1        : No N                      WHAPS048 HWOC2501    1
 MODEL          : WHAPS048 - Wheat
 EXPERIMENT     : HWOC2501 WH
 DATA PATH      : C:/DSSAT48/Wheat/
 TREATMENT  1   : No N                      WHAPS048
  
!              |------------------------------ Cumulative -----------------------------|------------------------------ Daily ----------------------------------|
!               N2Oemit  N2emit  NOemit   Denit  Nitrif   N2O-denit+nit      N2      NO N2Oemit  N2emit  NOemit   Denit  Nitrif   N2O-denit+nit      N2      NO   Denitrification (g[N]/ha) by soil depth (cm):                                   Nitrification (g[N]/ha) by soil depth (cm):                                     N2O flux (g[N]/ha) by soil depth (cm):                                          N2 flux (g[N]/ha) by soil depth (cm):                                           NO flux (g[N]/ha) by soil depth (cm):
!                 kg/ha   kg/ha   kg/ha   kg/ha   kg/ha   kg/ha   kg/ha   kg/ha   kg/ha    g/ha    g/ha    g/ha    g/ha    g/ha    g/ha    g/ha    g/ha    g/ha     0-5    5-10   10-20   20-30   30-40   40-50   50-60   60-70   70-90  90-210     0-5    5-10   10-20   20-30   30-40   40-50   50-60   60-70   70-90  90-210     0-5    5-10   10-20   20-30   30-40   40-50   50-60   60-70   70-90  90-210     0-5    5-10   10-20   20-30   30-40   40-50   50-60   60-70   70-90  90-210     0-5    5-10   10-20   20-30   30-40   40-50   50-60   60-70   70-90  90-210
@YEAR DOY   DAS   N2OEC    N2EC    NOEC    NDNC    NITC   N2ODC   N2ONC   N2FLC   NOFLC  N2OGED   N2GED   NOGED    NDND   NITRD   N2ODD   N2OND   N2FLD   NOFLD   NDN1D   NDN2D   NDN3D   NDN4D   NDN5D   NDN6D   NDN7D   NDN8D   NDN9D   NDN10   NIT1D   NIT2D   NIT3D   NIT4D   NIT5D   NIT6D   NIT7D   NIT8D   NIT9D   NIT10   N2O1D   N2O2D   N2O3D   N2O4D   N2O5D   N2O6D   N2O7D   N2O8D   N2O9D   N2O10   N2F1D   N2F2D   N2F3D   N2F4D   N2F5D   N2F6D   N2F7D   N2F8D   N2F9D   N2F10   NOF1D   NOF2D   NOF3D   NOF4D   NOF5D   NOF6D   NOF7D   NOF8D   NOF9D   NOF10
 2024 296     1    0.00    0.00    0.00    0.00     0.8   0.000   0.001   0.000   0.001     0.0     0.0     0.0     0.0     836    0.00    0.84    0.00    1.28     0.0     0.0     0.0     0.0     0.0     0.0     0.0     0.0     0.0     0.0     19.     19.     39.     39.     39.     39.     39.     40.     79.     80.     0.0     0.0     0.0     0.0     0.0     0.0     0.0     0.0     0.1     0.1     0.0     0.0     0.0     0.0     0.0     0.0     0.0     0.0     0.0     0.0     0.1     0.1     0.1     0.1     0.1     0.1     0.1     0.1     0.1     0.1
 2024 297     2    0.00    0.00    0.00    0.00     1.7   0.000   0.002   0.000   0.002     0.0     0.0     0.0     0.0     818    0.00    0.82    0.00    0.97     0.0     0.0     0.0     0.0     0.0     0.0     0.0     0.0     0.0     0.0     57.     57.     51.     35.     35.     35.     35.     35.     70.     70.     0.1     0.1     0.1     0.0     0.0     0.0     0.0     0.0     0.1     0.1     0.0     0.0     0.0     0.0     0.0     0.0     0.0     0.0     0.0     0.0     0.2     0.1     0.1     0.1     0.1     0.1     0.1     0.0     0.1     0.1
 2024 298     3    0.00    0.00    0.00    0.00     2.4   0.000   0.002   0.000   0.003     0.0     0.0     0.1     0.0     767    0.00    0.77    0.00    0.69     0.0     0.0     0.0     0.0     0.0     0.0     0.0     0.0     0.0     0.0     82.     83.     58.     30.     30.     30.     31.     30.     59.     58.     0.1     0.1     0.1     0.0     0.0     0.0     0.0     0.0     0.1     0.1     0.0     0.0     0.0     0.0     0.0     0.0     0.0     0.0     0.0     0.0     0.2     0.1     0.1     0.0     0.0     0.0     0.0     0.0     0.0     0.0
 2024 299     4    0.00    0.00    0.00    0.00     3.1   0.000   0.003   0.000   0.004     0.0     0.0     0.1     0.0     724    0.00    0.72    0.00    0.60     0.0     0.0     0.0     0.0     0.0     0.0     0.0     0.0     0.0     0.0     99.     99.     62.     27.     27.     27.     27.     27.     51.     50.     0.1     0.1     0.1     0.0     0.0     0.0     0.0     0.0     0.1     0.1     0.0     0.0     0.0     0.0     0.0     0.0     0.0     0.0     0.0     0.0     0.2     0.1     0.1     0.0     0.0     0.0     0.0     0.0     0.0     0.0
 2024 300     5    0.00    0.00    0.00    0.00     3.8   0.000   0.004   0.000   0.004     0.1     0.0     0.1     0.0     690    0.00    0.69    0.00    0.64     0.0     0.0     0.0     0.0     0.0     0.0     0.0     0.0     0.0     0.0    110.    111.     65.     24.     24.     24.     25.     24.     46.     44.     0.1     0.1     0.1     0.0     0.0     0.0     0.0     0.0     0.0     0.0     0.0     0.0     0.0     0.0     0.0     0.0     0.0     0.0     0.0     0.0     0.2     0.1     0.1     0.0     0.0     0.0     0.0     0.0     0.0     0.0
 2024 301     6    0.00    0.00    0.00    0.00     4.5   0.000   0.004   0.000   0.005     0.1     0.0     0.1     0.0     651    0.00    0.65    0.02    0.64     0.0     0.0     0.0     0.0     0.0     0.0     0.0     0.0     0.0     0.0    116.    117.     65.     22.     22.     22.     23.     22.     41.     39.     0.1     0.1     0.1     0.0     0.0     0.0     0.0     0.0     0.0     0.0     0.0     0.0     0.0     0.0     0.0     0.0     0.0     0.0     0.0     0.0     0.2     0.1     0.1     0.0     0.0     0.0     0.0     0.0     0.0     0.0
 2024 302     7    0.00    0.00    0.00    0.00     5.1   0.000   0.005   0.000   0.005     0.1     0.0     0.2     0.0     620    0.00    0.62    0.00    0.63     0.0     0.0     0.0     0.0     0.0     0.0     0.0     0.0     0.0     0.0    120.    121.     66.     21.     20.     21.     21.     20.     37.     35.     0.1     0.1     0.1     0.0     0.0     0.0     0.0     0.0     0.0     0.0     0.0     0.0     0.0     0.0     0.0     0.0     0.0     0.0     0.0     0.0     0.2     0.1     0.1     0.0     0.0     0.0     0.0     0.0     0.0     0.0
 2024 303     8    0.00    0.00    0.00    0.00     5.7   0.000   0.006   0.000   0.006     0.1     0.0     0.2     0.0     620    0.00    0.62    0.00    0.64     0.0     0.0     0.0     0.0     0.0     0.0     0.0     0.0     0.0     0.0    124.    130.     70.     21.     20.     20.     21.     20.     36.     33.     0.1     0.1     0.1     0.0     0.0     0.0     0.0     0.0     0.0     0.0     0.0     0.0     0.0     0.0     0.0     0.0     0.0     0.0     0.0     0.0     0.2     0.1     0.1     0.0     0.0     0.0     0.0     0.0     0.0     0.0
 2024 304     9    0.00    0.00    0.00    0.00     6.3   0.000   0.006   0.000   0.007     0.1     0.0     0.2     0.0     614    0.00    0.61    0.00    0.64     0.0     0.0     0.0     0.0     0.0     0.0     0.0     0.0     0.0     0.0    122.    137.     75.     21.     20.     20.     21.     19.     35.     32.     0.1     0.1     0.1     0.0     0.0     0.0     0.0     0.0     0.0     0.0     0.0     0.0     0.0     0.0     0.0     0.0     0.0     0.0     0.0     0.0     0.2     0.2     0.1     0.0     0.0     0.0     0.0     0.0     0.0     0.0
 2024 305    10    0.00    0.00    0.00    0.00     6.9   0.000   0.007   0.000   0.007     0.1     0.0     0.2     0.0     581    0.00    0.58    0.00    0.61     0.0     0.0     0.0     0.0     0.0     0.0     0.0     0.0     0.0     0.0    109.    136.     76.     20.     20.     20.     20.     19.     33.     29.     0.1     0.1     0.1     0.0     0.0     0.0     0.0     0.0     0.0     0.0     0.0     0.0     0.0     0.0     0.0     0.0     0.0     0.0     0.0     0.0     0.2     0.2     0.1     0.0     0.0     0.0     0.0     0.0     0.0     0.0
 2024 306    11    0.00    0.00    0.00    0.00     7.5   0.000   0.007   0.000   0.008     0.2     0.0     0.3     0.0     543    0.00    0.54    0.00    0.57     0.0     0.0     0.0     0.0     0.0     0.0     0.0     0.0     0.0     0.0     95.    132.     77.     20.     19.     19.     20.     18.     32.     28.     0.1     0.1     0.1     0.0     0.0     0.0     0.0     0.0     0.0     0.0     0.0     0.0     0.0     0.0     0.0     0.0     0.0     0.0     0.0     0.0     0.2     0.1     0.1     0.0     0.0     0.0     0.0     0.0     0.0     0.0
 2024 307    12    0.00    0.00    0.00    0.00     7.9   0.000   0.008   0.000   0.008     0.2     0.0     0.3     0.0     484    0.00    0.48    0.00    0.50     0.0     0.0     0.0     0.0     0.0     0.0     0.0     0.0     0.0     0.0     78.    119.     72.     18.     18.     18.     18.     16.     29.     25.     0.1     0.1     0.1     0.0     0.0     0.0     0.0     0.0     0.0     0.0     0.0     0.0     0.0     0.0     0.0     0.0     0.0     0.0     0.0     0.0     0.2     0.1     0.1     0.0     0.0     0.0     0.0     0.0     0.0     0.0
 2024 308    13    0.00    0.00    0.00    0.00     8.4   0.000   0.008   0.000   0.009     0.2     0.0     0.3     0.0     432    0.00    0.43    0.00    0.45     0.0     0.0     0.0     0.0     0.0     0.0     0.0     0.0     0.0     0.0     67.    107.     67.     17.     16.     16.     17.     15.     26.     22.     0.1     0.1     0.1     0.0     0.0     0.0     0.0     0.0     0.0     0.0     0.0     0.0     0.0     0.0     0.0     0.0     0.0     0.0     0.0     0.0     0.1     0.1     0.1     0.0     0.0     0.0     0.0     0.0     0.0     0.0
 2024 309    14    0.00    0.00    0.00    0.00     8.8   0.000   0.009   0.000   0.009     0.2     0.0     0.3     0.0     372    0.00    0.37    0.00    0.38     0.0     0.0     0.0     0.0     0.0     0.0     0.0     0.0     0.0     0.0     53.     91.     59.     15.     14.     14.     15.     13.     23.     20.     0.1     0.1     0.1     0.0     0.0     0.0     0.0     0.0     0.0     0.0     0.0     0.0     0.0     0.0     0.0     0.0     0.0     0.0     0.0     0.0     0.1     0.1     0.1     0.0     0.0     0.0     0.0     0.0     0.0     0.0
 2024 310    15    0.00    0.00    0.00    0.00     9.1   0.000   0.009   0.000   0.010     0.2     0.0     0.3     0.0     320    0.00    0.32    0.00    0.33     0.0     0.0     0.0     0.0     0.0     0.0     0.0     0.0     0.0     0.0     40.     77.     53.     13.     13.     13.     13.     12.     21.     18.     0.0     0.1     0.1     0.0     0.0     0.0     0.0     0.0     0.0     0.0     0.0     0.0     0.0     0.0     0.0     0.0     0.0     0.0     0.0     0.0     0.1     0.1     0.1     0.0     0.0     0.0     0.0     0.0     0.0     0.0
 2024 311    16    0.00    0.00    0.00    0.00     9.3   0.000   0.009   0.000   0.010     0.2     0.0     0.3     0.0     277    0.00    0.28    0.00    0.28     0.0     0.0     0.0     0.0     0.0     0.0     0.0     0.0     0.0     0.0     34.     67.     46.     12.     11.     11.     12.     11.     19.     16.     0.0     0.1     0.0     0.0     0.0     0.0     0.0     0.0     0.0     0.0     0.0     0.0     0.0     0.0     0.0     0.0     0.0     0.0     0.0     0.0     0.1     0.1     0.1     0.0     0.0     0.0     0.0     0.0     0.0     0.0
 2024 312    17    0.00    0.00    0.00    0.00     9.6   0.000   0.010   0.000   0.010     0.2     0.0     0.3     0.0     261    0.00    0.26    0.00    0.27     0.0     0.0     0.0     0.0     0.0     0.0     0.0     0.0     0.0     0.0     33.     63.     43.     11.     10.     11.     11.     10.     18.     15.     0.0     0.1     0.0     0.0     0.0     0.0     0.0     0.0     0.0     0.0     0.0     0.0     0.0     0.0     0.0     0.0     0.0     0.0     0.0     0.0     0.1     0.1     0.0     0.0     0.0     0.0     0.0     0.0     0.0     0.0
 2024 313    18    0.00    0.00    0.00    0.00     9.8   0.000   0.010   0.000   0.010     0.2     0.0     0.3     0.0     240    0.00    0.24    0.00    0.24     0.0     0.0     0.0     0.0     0.0     0.0     0.0     0.0     0.0     0.0     30.     57.     39.     10.     10.     10.     10.      9.     16.     14.     0.0     0.1     0.0     0.0     0.0     0.0     0.0     0.0     0.0     0.0     0.0     0.0     0.0     0.0     0.0     0.0     0.0     0.0     0.0     0.0     0.1     0.1     0.0     0.0     0.0     0.0     0.0     0.0     0.0     0.0
 2024 314    19    0.00    0.00    0.00    0.00    10.1   0.000   0.010   0.000   0.011     0.2     0.0     0.3     0.0     218    0.00    0.22    0.00    0.22     0.0     0.0     0.0     0.0     0.0     0.0     0.0     0.0     0.0     0.0     27.     52.     35.      9.      9.      9.     10.      9.     15.     13.     0.0     0.1     0.0     0.0     0.0     0.0     0.0     0.0     0.0     0.0     0.0     0.0     0.0     0.0     0.0     0.0     0.0     0.0     0.0     0.0     0.1     0.1     0.0     0.0     0.0     0.0     0.0     0.0     0.0     0.0
 2024 315    20    0.00    0.00    0.00    0.00    10.3   0.000   0.010   0.000   0.011     0.2     0.0     0.2     0.0     197    0.00    0.20    0.00    0.20     0.0     0.0     0.0     0.0     0.0     0.0     0.0     0.0     0.0     0.0     23.     46.     32.      8.      8.      8.      9.      8.     14.     12.     0.0     0.0     0.0     0.0     0.0     0.0     0.0     0.0     0.0     0.0     0.0     0.0     0.0     0.0     0.0     0.0     0.0     0.0     0.0     0.0     0.0     0.1     0.0     0.0     0.0     0.0     0.0     0.0     0.0     0.0
 2024 316    21    0.00    0.00    0.00    0.00    10.4   0.000   0.010   0.000   0.011     0.2     0.0     0.2     0.0     183    0.00    0.18    0.00    0.18     0.0     0.0     0.0     0.0     0.0     0.0     0.0     0.0     0.0     0.0     21.     42.     30.      8.      8.      8.      8.      8.     14.     12.     0.0     0.0     0.0     0.0     0.0     0.0     0.0     0.0     0.0     0.0     0.0     0.0     0.0     0.0     0.0     0.0     0.0     0.0     0.0     0.0     0.0     0.0     0.0     0.0     0.0     0.0     0.0     0.0     0.0     0.0
 2024 317    22    0.00    0.00    0.00    0.00    10.6   0.000   0.011   0.000   0.011     0.2     0.0     0.2     0.0     164    0.00    0.16    0.00    0.16     0.0     0.0     0.0     0.0     0.0     0.0     0.0     0.0     0.0     0.0     22.     36.     25.      7.      7.      7.      7.      7.     12.     10.     0.0     0.0     0.0     0.0     0.0     0.0     0.0     0.0     0.0     0.0     0.0     0.0     0.0     0.0     0.0     0.0     0.0     0.0     0.0     0.0     0.0     0.0     0.0     0.0     0.0     0.0     0.0     0.0     0.0     0.0
 2024 318    23    0.00    0.00    0.00    0.00    10.8   0.000   0.011   0.000   0.011     0.1     0.0     0.2     0.0     144    0.00    0.14    0.00    0.12     0.0     0.0     0.0     0.0     0.0     0.0     0.0     0.0     0.0     0.0     19.     31.     22.      6.      6.      6.      6.      6.     11.      9.     0.0     0.0     0.0     0.0     0.0     0.0     0.0     0.0     0.0     0.0     0.0     0.0     0.0     0.0     0.0     0.0     0.0     0.0     0.0     0.0     0.0     0.0     0.0     0.0     0.0     0.0     0.0     0.0     0.0     0.0
 2024 319    24    0.00    0.00    0.00    0.00    10.9   0.000   0.011   0.000   0.011     0.1     0.0     0.1     0.0     125    0.00    0.13    0.00    0.10     0.0     0.0     0.0     0.0     0.0     0.0     0.0     0.0     0.0     0.0     16.     27.     19.      5.      5.      5.      6.      5.     10.      8.     0.0     0.0     0.0     0.0     0.0     0.0     0.0     0.0     0.0     0.0     0.0     0.0     0.0     0.0     0.0     0.0     0.0     0.0     0.0     0.0     0.0     0.0     0.0     0.0     0.0     0.0     0.0     0.0     0.0     0.0
 2024 320    25    0.00    0.00    0.00    0.00    11.0   0.000   0.011   0.000   0.011     0.1     0.0     0.1     0.0     115    0.00    0.11    0.00    0.09     0.0     0.0     0.0     0.0     0.0     0.0     0.0     0.0     0.0     0.0     15.     25.     17.      5.      5.      5.      5.      5.      9.      8.     0.0     0.0     0.0     0.0     0.0     0.0     0.0     0.0     0.0     0.0     0.0     0.0     0.0     0.0     0.0     0.0     0.0     0.0     0.0     0.0     0.0     0.0     0.0     0.0     0.0     0.0     0.0     0.0     0.0     0.0
 2024 321    26    0.00    0.00    0.00    0.00    11.1   0.000   0.011   0.000   0.012     0.1     0.0     0.2     0.0     106    0.00    0.11    0.00    0.08     0.0     0.0     0.0     0.0     0.0     0.0     0.0     0.0     0.0     0.0     14.     23.     16.      4.      4.      4.      5.      4.      8.      7.     0.0     0.0     0.0     0.0     0.0     0.0     0.0     0.0     0.0     0.0     0.0     0.0     0.0     0.0     0.0     0.0     0.0     0.0     0.0     0.0     0.0     0.0     0.0     0.0     0.0     0.0     0.0     0.0     0.0     0.0
 2024 322    27    0.00    0.00    0.01    0.00    11.2   0.000   0.011   0.000   0.012     0.1     0.0     0.2     0.0      98    0.00    0.10    0.00    0.08     0.0     0.0     0.0     0.0     0.0     0.0     0.0     0.0     0.0     0.0     12.     21.     15.      4.      4.      4.      4.      4.      7.      7.     0.0     0.0     0.0     0.0     0.0     0.0     0.0     0.0     0.0     0.0     0.0     0.0     0.0     0.0     0.0     0.0     0.0     0.0     0.0     0.0     0.0     0.0     0.0     0.0     0.0     0.0     0.0     0.0     0.0     0.0
 2024 323    28    0.00    0.00    0.01    0.00    11.3   0.000   0.011   0.000   0.012     0.1     0.0     0.1     0.0      91    0.00    0.09    0.00    0.07     0.0     0.0     0.0     0.0     0.0     0.0     0.0     0.0     0.0     0.0     11.     20.     14.      4.      4.      4.      4.      4.      7.      6.     0.0     0.0     0.0     0.0     0.0     0.0     0.0     0.0     0.0     0.0     0.0     0.0     0.0     0.0     0.0     0.0     0.0     0.0     0.0     0.0     0.0     0.0     0.0     0.0     0.0     0.0     0.0     0.0     0.0     0.0
 2024 324    29    0.00    0.00    0.01    0.00    11.4   0.000   0.011   0.000   0.012     0.0     0.0     0.0     0.0      86    0.00    0.09    0.00    0.04     0.0     0.0     0.0     0.0     0.0     0.0     0.0     0.0     0.0     0.0      8.     19.     14.      4.      4.      4.      4.      4.      6.      6.     0.0     0.0     0.0     0.0     0.0     0.0     0.0     0.0     0.0     0.0     0.0     0.0     0.0     0.0     0.0     0.0     0.0     0.0     0.0     0.0     0.0     0.0     0.0     0.0     0.0     0.0     0.0     0.0     0.0     0.0
 2024 325    30    0.00    0.00    0.01    0.00    11.5   0.000   0.011   0.000   0.012     0.0     0.0     0.0     0.0      78    0.00    0.08    0.00    0.03     0.0     0.0     0.0     0.0     0.0     0.0     0.0     0.0     0.0     0.0      7.     13.     14.      4.      3.      4.      4.      4.      6.      6.     0.0     0.0     0.0     0.0     0.0     0.0     0.0     0.0     0.0     0.0     0.0     0.0     0.0     0.0     0.0     0.0     0.0     0.0     0.0     0.0     0.0     0.0     0.0     0.0     0.0     0.0     0.0     0.0     0.0     0.0
 2024 326    31    0.00    0.00    0.01    0.00    11.5   0.000   0.012   0.000   0.012     0.0     0.0     0.0     0.0      72    0.00    0.07    0.00    0.03     0.0     0.0     0.0     0.0     0.0     0.0     0.0     0.0     0.0     0.0      6.     12.     12.      3.      3.      3.      3.      3.      6.      6.     0.0     0.0     0.0     0.0     0.0     0.0     0.0     0.0     0.0     0.0     0.0     0.0     0.0     0.0     0.0     0.0     0.0     0.0     0.0     0.0     0.0     0.0     0.0     0.0     0.0     0.0     0.0     0.0     0.0     0.0
 2024 327    32    0.00    0.00    0.01    0.00    11.6   0.000   0.012   0.000   0.012     0.0     0.0     0.0     0.0      68    0.00    0.07    0.00    0.03     0.0     0.0     0.0     0.0     0.0     0.0     0.0     0.0     0.0     0.0      7.     13.     11.      3.      3.      3.      3.      3.      5.      5.     0.0     0.0     0.0     0.0     0.0     0.0     0.0     0.0     0.0     0.0     0.0     0.0     0.0     0.0     0.0     0.0     0.0     0.0     0.0     0.0     0.0     0.0     0.0     0.0     0.0     0.0     0.0     0.0     0.0     0.0
 2024 328    33    0.00    0.00    0.01    0.00    11.7   0.000   0.012   0.000   0.012     0.0     0.0     0.1     0.0      62    0.00    0.06    0.00    0.02     0.0     0.0     0.0     0.0     0.0     0.0     0.0     0.0     0.0     0.0      7.     13.      9.      2.      2.      2.      3.      3.      4.      4.     0.0     0.0     0.0     0.0     0.0     0.0     0.0     0.0     0.0     0.0     0.0     0.0     0.0     0.0     0.0     0.0     0.0     0.0     0.0     0.0     0.0     0.0     0.0     0.0     0.0     0.0     0.0     0.0     0.0     0.0
 2024 329    34    0.00    0.00    0.01    0.00    11.7   0.000   0.012   0.000   0.012     0.1     0.0     0.1     0.0      55    0.00    0.06    0.00    0.02     0.0     0.0     0.0     0.0     0.0     0.0     0.0     0.0     0.0     0.0      6.     12.      8.      2.      2.      2.      2.      2.      4.      4.     0.0     0.0     0.0     0.0     0.0     0.0     0.0     0.0     0.0     0.0     0.0     0.0     0.0     0.0     0.0     0.0     0.0     0.0     0.0     0.0     0.0     0.0     0.0     0.0     0.0     0.0     0.0     0.0     0.0     0.0
 2024 330    35    0.00    0.00    0.01    0.00    11.8   0.000   0.012   0.000   0.012     0.1     0.0     0.1     0.0      50    0.00    0.05    0.00    0.03     0.0     0.0     0.0     0.0     0.0     0.0     0.0     0.0     0.0     0.0      6.     11.      8.      2.      2.      2.      2.      2.      4.      3.     0.0     0.0     0.0     0.0     0.0     0.0     0.0     0.0     0.0     0.0     0.0     0.0     0.0     0.0     0.0     0.0     0.0     0.0     0.0     0.0     0.0     0.0     0.0     0.0     0.0     0.0     0.0     0.0     0.0     0.0
 2024 331    36    0.00    0.00    0.01    0.00    11.8   0.000   0.012   0.000   0.012     0.1     0.0     0.1     0.0      49    0.00    0.05    0.00    0.03     0.0     0.0     0.0     0.0     0.0     0.0     0.0     0.0     0.0     0.0      5.     11.      8.      2.      2.      2.      2.      2.      4.      3.     0.0     0.0     0.0     0.0     0.0     0.0     0.0     0.0     0.0     0.0     0.0     0.0     0.0     0.0     0.0     0.0     0.0     0.0     0.0     0.0     0.0     0.0     0.0     0.0     0.0     0.0     0.0     0.0     0.0     0.0
 2024 332    37    0.00    0.00    0.01    0.00    11.9   0.000   0.012   0.000   0.012     0.0     0.0     0.0     0.0      48    0.00    0.05    0.00    0.02     0.0     0.0     0.0     0.0     0.0     0.0     0.0     0.0     0.0     0.0      4.     11.      8.      2.      2.      2.      2.      2.      4.      3.     0.0     0.0     0.0     0.0     0.0     0.0     0.0     0.0     0.0     0.0     0.0     0.0     0.0     0.0     0.0     0.0     0.0     0.0     0.0     0.0     0.0     0.0     0.0     0.0     0.0     0.0     0.0     0.0     0.0     0.0
 2024 333    38    0.00    0.00    0.01    0.00    11.9   0.000   0.012   0.000   0.012     0.1     0.0     0.1     0.3      50    0.02    0.05    0.33    0.03     0.0     0.0     0.0     0.0     0.0     0.0     0.0     0.0     0.0     0.0      4.     11.      8.      2.      2.      2.      2.      2.      4.      4.     0.0     0.0     0.0     0.0     0.0     0.0     0.0     0.0     0.0     0.0     0.0     0.0     0.0     0.0     0.0     0.0     0.0     0.0     0.0     0.0     0.0     0.0     0.0     0.0     0.0     0.0     0.0     0.0     0.0     0.0
 2024 334    39    0.00    0.00    0.01    0.00    12.0   0.000   0.012   0.001   0.012     0.0     0.0     0.0     0.4      50    0.02    0.05    0.41    0.03     0.0     0.0     0.0     0.0     0.0     0.0     0.0     0.0     0.0     0.0      3.     10.      8.      2.      2.      2.      2.      2.      4.      4.     0.0     0.0     0.0     0.0     0.0     0.0     0.0     0.0     0.0     0.0     0.0     0.0     0.0     0.0     0.0     0.0     0.0     0.0     0.0     0.0     0.0     0.0     0.0     0.0     0.0     0.0     0.0     0.0     0.0     0.0
 2024 335    40    0.00    0.00    0.01    0.00    12.0   0.000   0.012   0.002   0.012     0.1     0.0     0.1     1.4      49    0.07    0.05    1.35    0.05     0.0     0.0     0.0     0.0     0.0     0.0     0.0     0.0     0.0     0.6      3.      9.      8.      2.      2.      2.      2.      2.      4.      4.     0.0     0.0     0.0     0.0     0.0     0.0     0.0     0.0     0.0     0.0     0.0     0.0     0.0     0.0     0.0     0.0     0.0     0.0     0.0     0.6     0.0     0.0     0.0     0.0     0.0     0.0     0.0     0.0     0.0     0.0
 2024 336    41    0.00    0.00    0.01    0.00    12.1   0.000   0.012   0.003   0.012     0.1     0.0     0.1     1.3      44    0.07    0.04    1.25    0.06     0.0     0.0     0.0     0.0     0.0     0.0     0.0     0.3     0.3     0.3      2.      7.      7.      2.      2.      2.      2.      2.      4.      4.     0.0     0.0     0.0     0.0     0.0     0.0     0.0     0.0     0.0     0.0     0.0     0.0     0.0     0.0     0.0     0.0     0.0     0.3     0.3     0.2     0.0     0.0     0.0     0.0     0.0     0.0     0.0     0.0     0.0     0.0
 2024 337    42    0.00    0.00    0.01    0.00    12.1   0.000   0.012   0.004   0.012     0.1     0.0     0.1     0.9      37    0.05    0.04    0.89    0.04     0.0     0.0     0.0     0.0     0.0     0.0     0.0     0.0     0.0     0.3      1.      6.      5.      2.      2.      2.      2.      2.      4.      4.     0.0     0.0     0.0     0.0     0.0     0.0     0.0     0.0     0.0     0.0     0.0     0.0     0.0     0.0     0.0     0.0     0.0     0.0     0.0     0.2     0.0     0.0     0.0     0.0     0.0     0.0     0.0     0.0     0.0     0.0
 2024 338    43    0.00    0.00    0.01    0.01    12.1   0.000   0.012   0.005   0.012     0.0     0.0     0.0     0.6      32    0.03    0.03    0.59    0.03     0.0     0.0     0.0     0.0     0.0     0.0     0.0     0.0     0.0     0.0      1.      5.      5.      1.      1.      1.      2.      2.      3.      3.     0.0     0.0     0.0     0.0     0.0     0.0     0.0     0.0     0.0     0.0     0.0     0.0     0.0     0.0     0.0     0.0     0.0     0.0     0.0     0.0     0.0     0.0     0.0     0.0     0.0     0.0     0.0     0.0     0.0     0.0
 2024 339    44    0.00    0.00    0.01    0.01    12.1   0.000   0.012   0.005   0.012     0.0     0.0     0.0     0.6      29    0.03    0.03    0.62    0.03     0.0     0.0     0.0     0.0     0.0     0.0     0.0     0.0     0.0     0.0      1.      4.      4.      1.      1.      1.      2.      2.      3.      3.     0.0     0.0     0.0     0.0     0.0     0.0     0.0     0.0     0.0     0.0     0.0     0.0     0.0     0.0     0.0     0.0     0.0     0.0     0.0     0.0     0.0     0.0     0.0     0.0     0.0     0.0     0.0     0.0     0.0     0.0
 2024 340    45    0.00    0.00    0.01    0.01    12.2   0.000   0.012   0.006   0.012     0.1     0.0     0.1     0.7      27    0.03    0.03    0.66    0.03     0.0     0.0     0.0     0.0     0.0     0.0     0.0     0.0     0.0     0.0      1.      4.      4.      1.      1.      1.      1.      1.      3.      3.     0.0     0.0     0.0     0.0     0.0     0.0     0.0     0.0     0.0     0.0     0.0     0.0     0.0     0.0     0.0     0.0     0.0     0.0     0.0     0.0     0.0     0.0     0.0     0.0     0.0     0.0     0.0     0.0     0.0     0.0
 2024 341    46    0.00    0.00    0.01    0.01    12.2   0.000   0.012   0.007   0.012     0.1     0.0     0.1     0.5      25    0.03    0.02    0.50    0.02     0.0     0.0     0.0     0.0     0.0     0.0     0.0     0.0     0.0     0.0      1.      4.      4.      1.      1.      1.      1.      1.      3.      2.     0.0     0.0     0.0     0.0     0.0     0.0     0.0     0.0     0.0     0.0     0.0     0.0     0.0     0.0     0.0     0.0     0.0     0.0     0.0     0.0     0.0     0.0     0.0     0.0     0.0     0.0     0.0     0.0     0.0     0.0
 2024 342    47    0.00    0.00    0.01    0.01    12.2   0.000   0.012   0.007   0.012     0.0     0.0     0.0     0.6      24    0.03    0.02    0.57    0.02     0.0     0.0     0.0     0.0     0.0     0.0     0.0     0.0     0.0     0.0      0.      3.      4.      1.      1.      1.      1.      1.      3.      2.     0.0     0.0     0.0     0.0     0.0     0.0     0.0     0.0     0.0     0.0     0.0     0.0     0.0     0.0     0.0     0.0     0.0     0.0     0.0     0.0     0.0     0.0     0.0     0.0     0.0     0.0     0.0     0.0     0.0     0.0
 2024 343    48    0.00    0.00    0.01    0.01    12.2   0.000   0.012   0.008   0.012     0.0     0.0     0.0     0.7      23    0.03    0.02    0.64    0.02     0.0     0.0     0.0     0.0     0.0     0.0     0.0     0.0     0.0     0.0      0.      3.      4.      1.      1.      1.      1.      1.      2.      2.     0.0     0.0     0.0     0.0     0.0     0.0     0.0     0.0     0.0     0.0     0.0     0.0     0.0     0.0     0.0     0.0     0.0     0.0     0.0     0.0     0.0     0.0     0.0     0.0     0.0     0.0     0.0     0.0     0.0     0.0
 2024 344    49    0.00    0.00    0.01    0.01    12.3   0.000   0.012   0.009   0.012     0.0     0.0     0.0     0.8      21    0.04    0.02    0.73    0.02     0.0     0.0     0.0     0.0     0.0     0.0     0.0     0.0     0.0     0.0      0.      3.      3.      1.      1.      1.      1.      1.      2.      2.     0.0     0.0     0.0     0.0     0.0     0.0     0.0     0.0     0.0     0.0     0.0     0.0     0.0     0.0     0.0     0.0     0.0     0.0     0.0     0.0     0.0     0.0     0.0     0.0     0.0     0.0     0.0     0.0     0.0     0.0
 2024 345    50    0.00    0.00    0.01    0.01    12.3   0.000   0.012   0.009   0.012     0.1     0.0     0.1     0.9      20    0.04    0.02    0.85    0.02     0.0     0.0     0.0     0.0     0.0     0.0     0.0     0.0     0.0     0.0      0.      3.      3.      1.      1.      1.      1.      1.      2.      2.     0.0     0.0     0.0     0.0     0.0     0.0     0.0     0.0     0.0     0.0     0.0     0.0     0.0     0.0     0.0     0.0     0.0     0.0     0.0     0.0     0.0     0.0     0.0     0.0     0.0     0.0     0.0     0.0     0.0     0.0
 2024 346    51    0.00    0.00    0.01    0.01    12.3   0.001   0.012   0.011   0.012     0.1     0.0     0.1     2.2      18    0.11    0.02    2.08    0.05     0.0     0.0     0.0     0.0     0.0     0.0     0.0     0.0     0.0     0.0      0.      2.      3.      1.      1.      1.      1.      1.      2.      2.     0.0     0.0     0.0     0.0     0.0     0.0     0.0     0.0     0.0     0.0     0.0     0.0     0.0     0.0     0.0     0.0     0.0     0.0     0.0     0.0     0.0     0.0     0.0     0.0     0.0     0.0     0.0     0.0     0.0     0.0
 2024 347    52    0.00    0.00    0.01    0.01    12.3   0.001   0.012   0.013   0.012     0.1     0.0     0.1     1.8      16    0.09    0.02    1.67    0.04     0.0     0.0     0.0     0.0     0.0     0.0     0.0     0.0     0.0     0.0      0.      2.      2.      1.      1.      1.      1.      1.      2.      2.     0.0     0.0     0.0     0.0     0.0     0.0     0.0     0.0     0.0     0.0     0.0     0.0     0.0     0.0     0.0     0.0     0.0     0.0     0.0     0.0     0.0     0.0     0.0     0.0     0.0     0.0     0.0     0.0     0.0     0.0
 2024 348    53    0.00    0.00    0.01    0.01    12.3   0.001   0.012   0.014   0.012     0.1     0.0     0.1     0.6      15    0.03    0.01    0.55    0.00     0.0     0.0     0.0     0.0     0.0     0.0     0.0     0.0     0.0     0.0      0.      2.      2.      1.      1.      1.      1.      1.      1.      1.     0.0     0.0     0.0     0.0     0.0     0.0     0.0     0.0     0.0     0.0     0.0     0.0     0.0     0.0     0.0     0.0     0.0     0.0     0.0     0.0     0.0     0.0     0.0     0.0     0.0     0.0     0.0     0.0     0.0     0.0
 2024 349    54    0.01    0.00    0.01    0.01    12.4   0.001   0.012   0.014   0.012     0.1     0.0     0.1     0.3      14    0.02    0.01    0.33    0.02     0.0     0.0     0.0     0.0     0.0     0.0     0.0     0.0     0.0     0.0      0.      2.      2.      1.      1.      1.      1.      1.      1.      1.     0.0     0.0     0.0     0.0     0.0     0.0     0.0     0.0     0.0     0.0     0.0     0.0     0.0     0.0     0.0     0.0     0.0     0.0     0.0     0.0     0.0     0.0     0.0     0.0     0.0     0.0     0.0     0.0     0.0     0.0
 2024 350    55    0.01    0.00    0.01    0.02    12.4   0.001   0.012   0.014   0.012     0.1     0.0     0.1     0.3      13    0.01    0.01    0.29    0.01     0.0     0.0     0.0     0.0     0.0     0.0     0.0     0.0     0.0     0.0      0.      2.      2.      1.      1.      1.      1.      1.      1.      1.     0.0     0.0     0.0     0.0     0.0     0.0     0.0     0.0     0.0     0.0     0.0     0.0     0.0     0.0     0.0     0.0     0.0     0.0     0.0     0.0     0.0     0.0     0.0     0.0     0.0     0.0     0.0     0.0     0.0     0.0
 2024 351    56    0.01    0.00    0.01    0.02    12.4   0.001   0.012   0.015   0.012     0.1     0.0     0.1     0.3      12    0.01    0.01    0.27    0.01     0.0     0.0     0.0     0.0     0.0     0.0     0.0     0.0     0.0     0.0      0.      1.      2.      0.      0.      1.      1.      1.      1.      1.     0.0     0.0     0.0     0.0     0.0     0.0     0.0     0.0     0.0     0.0     0.0     0.0     0.0     0.0     0.0     0.0     0.0     0.0     0.0     0.0     0.0     0.0     0.0     0.0     0.0     0.0     0.0     0.0     0.0     0.0
 2024 352    57    0.01    0.00    0.01    0.02    12.4   0.001   0.012   0.015   0.012     0.1     0.0     0.1     0.3      12    0.01    0.01    0.27    0.01     0.0     0.0     0.0     0.0     0.0     0.0     0.0     0.0     0.0     0.0      0.      1.      2.      0.      0.      1.      1.      1.      1.      1.     0.0     0.0     0.0     0.0     0.0     0.0     0.0     0.0     0.0     0.0     0.0     0.0     0.0     0.0     0.0     0.0     0.0     0.0     0.0     0.0     0.0     0.0     0.0     0.0     0.0     0.0     0.0     0.0     0.0     0.0
 2024 353    58    0.01    0.00    0.01    0.02    12.4   0.001   0.012   0.015   0.012     0.1     0.0     0.1     0.3      12    0.01    0.01    0.27    0.01     0.0     0.0     0.0     0.0     0.0     0.0     0.0     0.0     0.0     0.0      0.      1.      2.      0.      0.      1.      1.      1.      1.      1.     0.0     0.0     0.0     0.0     0.0     0.0     0.0     0.0     0.0     0.0     0.0     0.0     0.0     0.0     0.0     0.0     0.0     0.0     0.0     0.0     0.0     0.0     0.0     0.0     0.0     0.0     0.0     0.0     0.0     0.0
 2024 354    59    0.01    0.00    0.01    0.02    12.4   0.001   0.012   0.015   0.013     0.1     0.0     0.1     0.3      11    0.01    0.01    0.26    0.01     0.0     0.0     0.0     0.0     0.0     0.0     0.0     0.0     0.0     0.0      0.      1.      2.      0.      1.      1.      1.      1.      1.      1.     0.0     0.0     0.0     0.0     0.0     0.0     0.0     0.0     0.0     0.0     0.0     0.0     0.0     0.0     0.0     0.0     0.0     0.0     0.0     0.0     0.0     0.0     0.0     0.0     0.0     0.0     0.0     0.0     0.0     0.0
 2024 355    60    0.01    0.00    0.01    0.02    12.4   0.001   0.012   0.016   0.013     0.0     0.0     0.0     0.3      12    0.01    0.01    0.27    0.01     0.0     0.0     0.0     0.0     0.0     0.0     0.0     0.0     0.0     0.0      0.      1.      2.      1.      1.      1.      1.      1.      1.      1.     0.0     0.0     0.0     0.0     0.0     0.0     0.0     0.0     0.0     0.0     0.0     0.0     0.0     0.0     0.0     0.0     0.0     0.0     0.0     0.0     0.0     0.0     0.0     0.0     0.0     0.0     0.0     0.0     0.0     0.0
 2024 356    61    0.01    0.00    0.01    0.02    12.4   0.001   0.012   0.016   0.013     0.1     0.0     0.1     0.4      12    0.02    0.01    0.40    0.01     0.0     0.0     0.0     0.0     0.0     0.0     0.0     0.0     0.0     0.0      0.      1.      2.      0.      0.      0.      1.      1.      1.      1.     0.0     0.0     0.0     0.0     0.0     0.0     0.0     0.0     0.0     0.0     0.0     0.0     0.0     0.0     0.0     0.0     0.0     0.0     0.0     0.0     0.0     0.0     0.0     0.0     0.0     0.0     0.0     0.0     0.0     0.0
 2024 357    62    0.01    0.00    0.01    0.02    12.4   0.001   0.012   0.017   0.013     0.1     0.0     0.1     0.6      11    0.03    0.01    0.53    0.02     0.0     0.0     0.0     0.0     0.0     0.0     0.0     0.0     0.0     0.0      0.      1.      1.      0.      0.      0.      0.      1.      1.      1.     0.0     0.0     0.0     0.0     0.0     0.0     0.0     0.0     0.0     0.0     0.0     0.0     0.0     0.0     0.0     0.0     0.0     0.0     0.0     0.0     0.0     0.0     0.0     0.0     0.0     0.0     0.0     0.0     0.0     0.0
 2024 358    63    0.01    0.00    0.01    0.02    12.5   0.001   0.012   0.017   0.013     0.0     0.0     0.0     0.9      11    0.04    0.01    0.85    0.02     0.0     0.0     0.0     0.0     0.0     0.0     0.0     0.0     0.0     0.2      0.      1.      1.      0.      0.      0.      0.      0.      1.      1.     0.0     0.0     0.0     0.0     0.0     0.0     0.0     0.0     0.0     0.0     0.0     0.0     0.0     0.0     0.0     0.0     0.0     0.0     0.0     0.2     0.0     0.0     0.0     0.0     0.0     0.0     0.0     0.0     0.0     0.0
 2024 359    64    0.01    0.00    0.01    0.02    12.5   0.001   0.012   0.018   0.013     0.0     0.0     0.0     0.7      10    0.04    0.01    0.68    0.02     0.0     0.0     0.0     0.0     0.0     0.0     0.0     0.0     0.0     0.0      0.      1.      1.      0.      0.      0.      0.      0.      1.      1.     0.0     0.0     0.0     0.0     0.0     0.0     0.0     0.0     0.0     0.0     0.0     0.0     0.0     0.0     0.0     0.0     0.0     0.0     0.0     0.0     0.0     0.0     0.0     0.0     0.0     0.0     0.0     0.0     0.0     0.0
 2024 360    65    0.01    0.00    0.01    0.02    12.5   0.001   0.012   0.018   0.013     0.1     0.0     0.1     0.4       8    0.02    0.01    0.37    0.01     0.0     0.0     0.0     0.0     0.0     0.0     0.0     0.0     0.0     0.0      0.      0.      1.      0.      0.      0.      0.      0.      1.      1.     0.0     0.0     0.0     0.0     0.0     0.0     0.0     0.0     0.0     0.0     0.0     0.0     0.0     0.0     0.0     0.0     0.0     0.0     0.0     0.0     0.0     0.0     0.0     0.0     0.0     0.0     0.0     0.0     0.0     0.0
 2024 361    66    0.01    0.00    0.01    0.02    12.5   0.001   0.012   0.019   0.013     0.1     0.0     0.1     0.4       8    0.02    0.01    0.36    0.01     0.0     0.0     0.0     0.0     0.0     0.0     0.0     0.0     0.0     0.0      0.      0.      1.      0.      0.      0.      0.      0.      1.      1.     0.0     0.0     0.0     0.0     0.0     0.0     0.0     0.0     0.0     0.0     0.0     0.0     0.0     0.0     0.0     0.0     0.0     0.0     0.0     0.0     0.0     0.0     0.0     0.0     0.0     0.0     0.0     0.0     0.0     0.0
 2024 362    67    0.01    0.00    0.01    0.02    12.5   0.001   0.012   0.019   0.013     0.1     0.0     0.1     0.4       7    0.02    0.01    0.34    0.01     0.0     0.0     0.0     0.0     0.0     0.0     0.0     0.0     0.0     0.0      0.      0.      1.      0.      0.      0.      0.      0.      1.      1.     0.0     0.0     0.0     0.0     0.0     0.0     0.0     0.0     0.0     0.0     0.0     0.0     0.0     0.0     0.0     0.0     0.0     0.0     0.0     0.0     0.0     0.0     0.0     0.0     0.0     0.0     0.0     0.0     0.0     0.0
 2024 363    68    0.01    0.00    0.01    0.02    12.5   0.001   0.012   0.019   0.013     0.1     0.0     0.1     0.2       6    0.01    0.01    0.21    0.01     0.0     0.0     0.0     0.0     0.0     0.0     0.0     0.0     0.0     0.0      0.      0.      1.      0.      0.      0.      0.      0.      1.      1.     0.0     0.0     0.0     0.0     0.0     0.0     0.0     0.0     0.0     0.0     0.0     0.0     0.0     0.0     0.0     0.0     0.0     0.0     0.0     0.0     0.0     0.0     0.0     0.0     0.0     0.0     0.0     0.0     0.0     0.0
 2024 364    69    0.01    0.00    0.01    0.02    12.5   0.001   0.013   0.019   0.013     0.1     0.0     0.1     0.1       6    0.00    0.01    0.10    0.01     0.0     0.0     0.0     0.0     0.0     0.0     0.0     0.0     0.0     0.0      0.      0.      1.      0.      0.      0.      0.      0.      1.      1.     0.0     0.0     0.0     0.0     0.0     0.0     0.0     0.0     0.0     0.0     0.0     0.0     0.0     0.0     0.0     0.0     0.0     0.0     0.0     0.0     0.0     0.0     0.0     0.0     0.0     0.0     0.0     0.0     0.0     0.0
 2024 365    70    0.01    0.00    0.01    0.02    12.5   0.001   0.013   0.020   0.013     0.1     0.0     0.1     0.1       5    0.00    0.01    0.09    0.00     0.0     0.0     0.0     0.0     0.0     0.0     0.0     0.0     0.0     0.0      0.      0.      1.      0.      0.      0.      0.      0.      1.      1.     0.0     0.0     0.0     0.0     0.0     0.0     0.0     0.0     0.0     0.0     0.0     0.0     0.0     0.0     0.0     0.0     0.0     0.0     0.0     0.0     0.0     0.0     0.0     0.0     0.0     0.0     0.0     0.0     0.0     0.0
 2024 366    71    0.01    0.00    0.01    0.02    12.5   0.001   0.013   0.020   0.013     0.1     0.0     0.1     0.0       5    0.00    0.00    0.00    0.00     0.0     0.0     0.0     0.0     0.0     0.0     0.0     0.0     0.0     0.0      0.      0.      1.      0.      0.      0.      0.      0.      0.      1.     0.0     0.0     0.0     0.0     0.0     0.0     0.0     0.0     0.0     0.0     0.0     0.0     0.0     0.0     0.0     0.0     0.0     0.0     0.0     0.0     0.0     0.0     0.0     0.0     0.0     0.0     0.0     0.0     0.0     0.0
 2025 001    72    0.01    0.00    0.01    0.02    12.5   0.001   0.013   0.020   0.013     0.1     0.0     0.1     0.0       4    0.00    0.00    0.00    0.00     0.0     0.0     0.0     0.0     0.0     0.0     0.0     0.0     0.0     0.0      0.      0.      0.      0.      0.      0.      0.      0.      0.      1.     0.0     0.0     0.0     0.0     0.0     0.0     0.0     0.0     0.0     0.0     0.0     0.0     0.0     0.0     0.0     0.0     0.0     0.0     0.0     0.0     0.0     0.0     0.0     0.0     0.0     0.0     0.0     0.0     0.0     0.0
 2025 002    73    0.01    0.00    0.01    0.02    12.5   0.001   0.013   0.020   0.013     0.1     0.0     0.1     0.0       4    0.00    0.00    0.00    0.00     0.0     0.0     0.0     0.0     0.0     0.0     0.0     0.0     0.0     0.0      0.      0.      0.      0.      0.      0.      0.      0.      0.      1.     0.0     0.0     0.0     0.0     0.0     0.0     0.0     0.0     0.0     0.0     0.0     0.0     0.0     0.0     0.0     0.0     0.0     0.0     0.0     0.0     0.0     0.0     0.0     0.0     0.0     0.0     0.0     0.0     0.0     0.0
 2025 003    74    0.01    0.00    0.01    0.02    12.5   0.001   0.013   0.020   0.013     0.0     0.0     0.0     0.0       4    0.00    0.00    0.00    0.00     0.0     0.0     0.0     0.0     0.0     0.0     0.0     0.0     0.0     0.0      0.      0.      0.      0.      0.      0.      0.      0.      0.      1.     0.0     0.0     0.0     0.0     0.0     0.0     0.0     0.0     0.0     0.0     0.0     0.0     0.0     0.0     0.0     0.0     0.0     0.0     0.0     0.0     0.0     0.0     0.0     0.0     0.0     0.0     0.0     0.0     0.0     0.0
 2025 004    75    0.01    0.00    0.01    0.02    12.5   0.001   0.013   0.020   0.013     0.0     0.0     0.0     0.0       4    0.00    0.00    0.00    0.00     0.0     0.0     0.0     0.0     0.0     0.0     0.0     0.0     0.0     0.0      0.      0.      0.      0.      0.      0.      0.      0.      0.      0.     0.0     0.0     0.0     0.0     0.0     0.0     0.0     0.0     0.0     0.0     0.0     0.0     0.0     0.0     0.0     0.0     0.0     0.0     0.0     0.0     0.0     0.0     0.0     0.0     0.0     0.0     0.0     0.0     0.0     0.0
 2025 005    76    0.01    0.00    0.01    0.02    12.5   0.001   0.013   0.020   0.013     0.1     0.0     0.1     0.0       3    0.00    0.00    0.00    0.00     0.0     0.0     0.0     0.0     0.0     0.0     0.0     0.0     0.0     0.0      0.      0.      0.      0.      0.      0.      0.      0.      0.      0.     0.0     0.0     0.0     0.0     0.0     0.0     0.0     0.0     0.0     0.0     0.0     0.0     0.0     0.0     0.0     0.0     0.0     0.0     0.0     0.0     0.0     0.0     0.0     0.0     0.0     0.0     0.0     0.0     0.0     0.0
 2025 006    77    0.01    0.00    0.01    0.02    12.5   0.001   0.013   0.020   0.013     0.0     0.0     0.0     0.0       3    0.00    0.00    0.00    0.00     0.0     0.0     0.0     0.0     0.0     0.0     0.0     0.0     0.0     0.0      0.      0.      0.      0.      0.      0.      0.      0.      0.      0.     0.0     0.0     0.0     0.0     0.0     0.0     0.0     0.0     0.0     0.0     0.0     0.0     0.0     0.0     0.0     0.0     0.0     0.0     0.0     0.0     0.0     0.0     0.0     0.0     0.0     0.0     0.0     0.0     0.0     0.0
 2025 007    78    0.01    0.00    0.01    0.02    12.5   0.001   0.013   0.020   0.013     0.0     0.0     0.0     0.0       3    0.00    0.00    0.00    0.00     0.0     0.0     0.0     0.0     0.0     0.0     0.0     0.0     0.0     0.0      0.      0.      0.      0.      0.      0.      0.      0.      0.      0.     0.0     0.0     0.0     0.0     0.0     0.0     0.0     0.0     0.0     0.0     0.0     0.0     0.0     0.0     0.0     0.0     0.0     0.0     0.0     0.0     0.0     0.0     0.0     0.0     0.0     0.0     0.0     0.0     0.0     0.0
 2025 008    79    0.01    0.00    0.01    0.02    12.5   0.001   0.013   0.020   0.013     0.0     0.0     0.0     0.0       3    0.00    0.00    0.00    0.00     0.0     0.0     0.0     0.0     0.0     0.0     0.0     0.0     0.0     0.0      0.      0.      0.      0.      0.      0.      0.      0.      0.      0.     0.0     0.0     0.0     0.0     0.0     0.0     0.0     0.0     0.0     0.0     0.0     0.0     0.0     0.0     0.0     0.0     0.0     0.0     0.0     0.0     0.0     0.0     0.0     0.0     0.0     0.0     0.0     0.0     0.0     0.0
 2025 009    80    0.01    0.00    0.01    0.02    12.5   0.001   0.013   0.020   0.013     0.0     0.0     0.0     0.0       3    0.00    0.00    0.00    0.00     0.0     0.0     0.0     0.0     0.0     0.0     0.0     0.0     0.0     0.0      0.      0.      0.      0.      0.      0.      0.      0.      0.      0.     0.0     0.0     0.0     0.0     0.0     0.0     0.0     0.0     0.0     0.0     0.0     0.0     0.0     0.0     0.0     0.0     0.0     0.0     0.0     0.0     0.0     0.0     0.0     0.0     0.0     0.0     0.0     0.0     0.0     0.0
 2025 010    81    0.01    0.00    0.01    0.02    12.5   0.001   0.013   0.020   0.013     0.0     0.0     0.0     0.0       3    0.00    0.00    0.00    0.00     0.0     0.0     0.0     0.0     0.0     0.0     0.0     0.0     0.0     0.0      0.      0.      0.      0.      0.      0.      0.      0.      0.      0.     0.0     0.0     0.0     0.0     0.0     0.0     0.0     0.0     0.0     0.0     0.0     0.0     0.0     0.0     0.0     0.0     0.0     0.0     0.0     0.0     0.0     0.0     0.0     0.0     0.0     0.0     0.0     0.0     0.0     0.0
 2025 011    82    0.01    0.00    0.01    0.02    12.6   0.001   0.013   0.020   0.013     0.0     0.0     0.0     0.2       3    0.01    0.00    0.16    0.00     0.0     0.0     0.0     0.0     0.0     0.0     0.0     0.0     0.0     0.0      0.      0.      0.      0.      0.      0.      0.      0.      0.      0.     0.0     0.0     0.0     0.0     0.0     0.0     0.0     0.0     0.0     0.0     0.0     0.0     0.0     0.0     0.0     0.0     0.0     0.0     0.0     0.0     0.0     0.0     0.0     0.0     0.0     0.0     0.0     0.0     0.0     0.0
 2025 012    83    0.01    0.00    0.01    0.02    12.6   0.001   0.013   0.020   0.013     0.1     0.0     0.0     0.4       3    0.02    0.00    0.34    0.00     0.0     0.0     0.0     0.0     0.0     0.0     0.0     0.0     0.0     0.0      0.      0.      0.      0.      0.      0.      0.      0.      0.      0.     0.0     0.0     0.0     0.0     0.0     0.0     0.0     0.0     0.0     0.0     0.0     0.0     0.0     0.0     0.0     0.0     0.0     0.0     0.0     0.0     0.0     0.0     0.0     0.0     0.0     0.0     0.0     0.0     0.0     0.0
 2025 013    84    0.01    0.00    0.01    0.02    12.6   0.001   0.013   0.020   0.013     0.1     0.0     0.1     0.2       2    0.01    0.00    0.15    0.00     0.0     0.0     0.0     0.0     0.0     0.0     0.0     0.0     0.0     0.0      0.      0.      0.      0.      0.      0.      0.      0.      0.      0.     0.0     0.0     0.0     0.0     0.0     0.0     0.0     0.0     0.0     0.0     0.0     0.0     0.0     0.0     0.0     0.0     0.0     0.0     0.0     0.0     0.0     0.0     0.0     0.0     0.0     0.0     0.0     0.0     0.0     0.0
 2025 014    85    0.01    0.00    0.01    0.02    12.6   0.001   0.013   0.020   0.013     0.1     0.0     0.1     0.0       2    0.00    0.00    0.00    0.00     0.0     0.0     0.0     0.0     0.0     0.0     0.0     0.0     0.0     0.0      0.      0.      0.      0.      0.      0.      0.      0.      0.      0.     0.0     0.0     0.0     0.0     0.0     0.0     0.0     0.0     0.0     0.0     0.0     0.0     0.0     0.0     0.0     0.0     0.0     0.0     0.0     0.0     0.0     0.0     0.0     0.0     0.0     0.0     0.0     0.0     0.0     0.0
 2025 015    86    0.01    0.00    0.01    0.02    12.6   0.001   0.013   0.020   0.013     0.1     0.0     0.1     0.0       2    0.00    0.00    0.00    0.00     0.0     0.0     0.0     0.0     0.0     0.0     0.0     0.0     0.0     0.0      0.      0.      0.      0.      0.      0.      0.      0.      0.      0.     0.0     0.0     0.0     0.0     0.0     0.0     0.0     0.0     0.0     0.0     0.0     0.0     0.0     0.0     0.0     0.0     0.0     0.0     0.0     0.0     0.0     0.0     0.0     0.0     0.0     0.0     0.0     0.0     0.0     0.0
 2025 016    87    0.01    0.00    0.01    0.02    12.6   0.001   0.013   0.020   0.013     0.1     0.0     0.1     0.0       2    0.00    0.00    0.00    0.00     0.0     0.0     0.0     0.0     0.0     0.0     0.0     0.0     0.0     0.0      0.      0.      0.      0.      0.      0.      0.      0.      0.      0.     0.0     0.0     0.0     0.0     0.0     0.0     0.0     0.0     0.0     0.0     0.0     0.0     0.0     0.0     0.0     0.0     0.0     0.0     0.0     0.0     0.0     0.0     0.0     0.0     0.0     0.0     0.0     0.0     0.0     0.0
 2025 017    88    0.01    0.00    0.01    0.02    12.6   0.001   0.013   0.020   0.013     0.1     0.0     0.1     0.0       2    0.00    0.00    0.00    0.00     0.0     0.0     0.0     0.0     0.0     0.0     0.0     0.0     0.0     0.0      0.      0.      0.      0.      0.      0.      0.      0.      0.      0.     0.0     0.0     0.0     0.0     0.0     0.0     0.0     0.0     0.0     0.0     0.0     0.0     0.0     0.0     0.0     0.0     0.0     0.0     0.0     0.0     0.0     0.0     0.0     0.0     0.0     0.0     0.0     0.0     0.0     0.0
 2025 018    89    0.01    0.00    0.01    0.02    12.6   0.001   0.013   0.020   0.013     0.1     0.0     0.1     0.0       2    0.00    0.00    0.00    0.00     0.0     0.0     0.0     0.0     0.0     0.0     0.0     0.0     0.0     0.0      0.      0.      0.      0.      0.      0.      0.      0.      0.      0.     0.0     0.0     0.0     0.0     0.0     0.0     0.0     0.0     0.0     0.0     0.0     0.0     0.0     0.0     0.0     0.0     0.0     0.0     0.0     0.0     0.0     0.0     0.0     0.0     0.0     0.0     0.0     0.0     0.0     0.0
 2025 019    90    0.01    0.00    0.01    0.02    12.6   0.001   0.013   0.020   0.013     0.1     0.0     0.1     0.0       1    0.00    0.00    0.00    0.00     0.0     0.0     0.0     0.0     0.0     0.0     0.0     0.0     0.0     0.0      0.      0.      0.      0.      0.      0.      0.      0.      0.      0.     0.0     0.0     0.0     0.0     0.0     0.0     0.0     0.0     0.0     0.0     0.0     0.0     0.0     0.0     0.0     0.0     0.0     0.0     0.0     0.0     0.0     0.0     0.0     0.0     0.0     0.0     0.0     0.0     0.0     0.0
 2025 020    91    0.01    0.00    0.01    0.02    12.6   0.001   0.013   0.020   0.013     0.1     0.0     0.1     0.0       1    0.00    0.00    0.00    0.00     0.0     0.0     0.0     0.0     0.0     0.0     0.0     0.0     0.0     0.0      0.      0.      0.      0.      0.      0.      0.      0.      0.      0.     0.0     0.0     0.0     0.0     0.0     0.0     0.0     0.0     0.0     0.0     0.0     0.0     0.0     0.0     0.0     0.0     0.0     0.0     0.0     0.0     0.0     0.0     0.0     0.0     0.0     0.0     0.0     0.0     0.0     0.0
 2025 021    92    0.01    0.00    0.01    0.02    12.6   0.001   0.013   0.020   0.013     0.1     0.0     0.1     0.0       1    0.00    0.00    0.00    0.00     0.0     0.0     0.0     0.0     0.0     0.0     0.0     0.0     0.0     0.0      0.      0.      0.      0.      0.      0.      0.      0.      0.      0.     0.0     0.0     0.0     0.0     0.0     0.0     0.0     0.0     0.0     0.0     0.0     0.0     0.0     0.0     0.0     0.0     0.0     0.0     0.0     0.0     0.0     0.0     0.0     0.0     0.0     0.0     0.0     0.0     0.0     0.0
 2025 022    93    0.01    0.00    0.01    0.02    12.6   0.001   0.013   0.020   0.013     0.1     0.0     0.1     0.0       1    0.00    0.00    0.00    0.00     0.0     0.0     0.0     0.0     0.0     0.0     0.0     0.0     0.0     0.0      0.      0.      0.      0.      0.      0.      0.      0.      0.      0.     0.0     0.0     0.0     0.0     0.0     0.0     0.0     0.0     0.0     0.0     0.0     0.0     0.0     0.0     0.0     0.0     0.0     0.0     0.0     0.0     0.0     0.0     0.0     0.0     0.0     0.0     0.0     0.0     0.0     0.0
 2025 023    94    0.01    0.00    0.01    0.02    12.6   0.001   0.013   0.020   0.013     0.1     0.0     0.1     0.0       1    0.00    0.00    0.00    0.00     0.0     0.0     0.0     0.0     0.0     0.0     0.0     0.0     0.0     0.0      0.      0.      0.      0.      0.      0.      0.      0.      0.      0.     0.0     0.0     0.0     0.0     0.0     0.0     0.0     0.0     0.0     0.0     0.0     0.0     0.0     0.0     0.0     0.0     0.0     0.0     0.0     0.0     0.0     0.0     0.0     0.0     0.0     0.0     0.0     0.0     0.0     0.0
 2025 024    95    0.01    0.00    0.01    0.02    12.6   0.001   0.013   0.020   0.013     0.0     0.0     0.0     0.0       1    0.00    0.00    0.00    0.00     0.0     0.0     0.0     0.0     0.0     0.0     0.0     0.0     0.0     0.0      0.      0.      0.      0.      0.      0.      0.      0.      0.      0.     0.0     0.0     0.0     0.0     0.0     0.0     0.0     0.0     0.0     0.0     0.0     0.0     0.0     0.0     0.0     0.0     0.0     0.0     0.0     0.0     0.0     0.0     0.0     0.0     0.0     0.0     0.0     0.0     0.0     0.0
 2025 025    96    0.01    0.00    0.01    0.02    12.6   0.001   0.013   0.020   0.013     0.1     0.0     0.0     0.0       1    0.00    0.00    0.00    0.00     0.0     0.0     0.0     0.0     0.0     0.0     0.0     0.0     0.0     0.0      0.      0.      0.      0.      0.      0.      0.      0.      0.      0.     0.0     0.0     0.0     0.0     0.0     0.0     0.0     0.0     0.0     0.0     0.0     0.0     0.0     0.0     0.0     0.0     0.0     0.0     0.0     0.0     0.0     0.0     0.0     0.0     0.0     0.0     0.0     0.0     0.0     0.0
 2025 026    97    0.01    0.00    0.01    0.02    12.6   0.001   0.013   0.020   0.013     0.1     0.0     0.1     0.0       1    0.00    0.00    0.00    0.00     0.0     0.0     0.0     0.0     0.0     0.0     0.0     0.0     0.0     0.0      0.      0.      0.      0.      0.      0.      0.      0.      0.      0.     0.0     0.0     0.0     0.0     0.0     0.0     0.0     0.0     0.0     0.0     0.0     0.0     0.0     0.0     0.0     0.0     0.0     0.0     0.0     0.0     0.0     0.0     0.0     0.0     0.0     0.0     0.0     0.0     0.0     0.0
 2025 027    98    0.01    0.00    0.01    0.02    12.6   0.001   0.013   0.020   0.013     0.1     0.0     0.1     0.0       1    0.00    0.00    0.00    0.00     0.0     0.0     0.0     0.0     0.0     0.0     0.0     0.0     0.0     0.0      0.      0.      0.      0.      0.      0.      0.      0.      0.      0.     0.0     0.0     0.0     0.0     0.0     0.0     0.0     0.0     0.0     0.0     0.0     0.0     0.0     0.0     0.0     0.0     0.0     0.0     0.0     0.0     0.0     0.0     0.0     0.0     0.0     0.0     0.0     0.0     0.0     0.0
 2025 028    99    0.01    0.00    0.01    0.02    12.6   0.001   0.013   0.020   0.013     0.0     0.0     0.0     0.0       1    0.00    0.00    0.00    0.00     0.0     0.0     0.0     0.0     0.0     0.0     0.0     0.0     0.0     0.0      0.      0.      0.      0.      0.      0.      0.      0.      0.      0.     0.0     0.0     0.0     0.0     0.0     0.0     0.0     0.0     0.0     0.0     0.0     0.0     0.0     0.0     0.0     0.0     0.0     0.0     0.0     0.0     0.0     0.0     0.0     0.0     0.0     0.0     0.0     0.0     0.0     0.0
 2025 029   100    0.01    0.00    0.01    0.02    12.6   0.001   0.013   0.020   0.013     0.0     0.0     0.0     0.1       1    0.00    0.00    0.07    0.00     0.0     0.0     0.0     0.0     0.0     0.0     0.0     0.0     0.0     0.0      0.      0.      0.      0.      0.      0.      0.      0.      0.      0.     0.0     0.0     0.0     0.0     0.0     0.0     0.0     0.0     0.0     0.0     0.0     0.0     0.0     0.0     0.0     0.0     0.0     0.0     0.0     0.0     0.0     0.0     0.0     0.0     0.0     0.0     0.0     0.0     0.0     0.0
 2025 030   101    0.01    0.00    0.01    0.02    12.6   0.001   0.013   0.020   0.013     0.0     0.0     0.0     0.1       2    0.01    0.00    0.12    0.00     0.0     0.0     0.0     0.0     0.0     0.0     0.0     0.0     0.0     0.0      0.      0.      0.      0.      0.      0.      0.      0.      0.      0.     0.0     0.0     0.0     0.0     0.0     0.0     0.0     0.0     0.0     0.0     0.0     0.0     0.0     0.0     0.0     0.0     0.0     0.0     0.0     0.0     0.0     0.0     0.0     0.0     0.0     0.0     0.0     0.0     0.0     0.0
 2025 031   102    0.01    0.00    0.01    0.02    12.6   0.001   0.013   0.021   0.013     0.0     0.0     0.0     0.5       2    0.02    0.00    0.44    0.01     0.0     0.0     0.0     0.0     0.0     0.0     0.0     0.0     0.0     0.0      0.      0.      0.      0.      0.      0.      0.      0.      0.      0.     0.0     0.0     0.0     0.0     0.0     0.0     0.0     0.0     0.0     0.0     0.0     0.0     0.0     0.0     0.0     0.0     0.0     0.0     0.0     0.0     0.0     0.0     0.0     0.0     0.0     0.0     0.0     0.0     0.0     0.0
 2025 032   103    0.01    0.00    0.01    0.02    12.6   0.001   0.013   0.021   0.013     0.0     0.0     0.0     0.6       2    0.03    0.00    0.58    0.01     0.0     0.0     0.0     0.0     0.0     0.0     0.0     0.0     0.0     0.0      0.      0.      0.      0.      0.      0.      0.      0.      0.      0.     0.0     0.0     0.0     0.0     0.0     0.0     0.0     0.0     0.0     0.0     0.0     0.0     0.0     0.0     0.0     0.0     0.0     0.0     0.0     0.0     0.0     0.0     0.0     0.0     0.0     0.0     0.0     0.0     0.0     0.0
 2025 033   104    0.01    0.00    0.01    0.02    12.6   0.001   0.013   0.022   0.013     0.1     0.0     0.0     0.2       2    0.01    0.00    0.22    0.01     0.0     0.0     0.0     0.0     0.0     0.0     0.0     0.0     0.0     0.0      0.      0.      0.      0.      0.      0.      0.      0.      0.      0.     0.0     0.0     0.0     0.0     0.0     0.0     0.0     0.0     0.0     0.0     0.0     0.0     0.0     0.0     0.0     0.0     0.0     0.0     0.0     0.0     0.0     0.0     0.0     0.0     0.0     0.0     0.0     0.0     0.0     0.0
 2025 034   105    0.01    0.00    0.01    0.02    12.6   0.001   0.013   0.022   0.013     0.1     0.0     0.1     0.0       2    0.00    0.00    0.03    0.00     0.0     0.0     0.0     0.0     0.0     0.0     0.0     0.0     0.0     0.0      0.      0.      0.      0.      0.      0.      0.      0.      0.      0.     0.0     0.0     0.0     0.0     0.0     0.0     0.0     0.0     0.0     0.0     0.0     0.0     0.0     0.0     0.0     0.0     0.0     0.0     0.0     0.0     0.0     0.0     0.0     0.0     0.0     0.0     0.0     0.0     0.0     0.0
 2025 035   106    0.01    0.00    0.01    0.02    12.6   0.001   0.013   0.022   0.013     0.1     0.0     0.1     0.0       2    0.00    0.00    0.00    0.00     0.0     0.0     0.0     0.0     0.0     0.0     0.0     0.0     0.0     0.0      0.      0.      0.      0.      0.      0.      0.      0.      0.      0.     0.0     0.0     0.0     0.0     0.0     0.0     0.0     0.0     0.0     0.0     0.0     0.0     0.0     0.0     0.0     0.0     0.0     0.0     0.0     0.0     0.0     0.0     0.0     0.0     0.0     0.0     0.0     0.0     0.0     0.0
 2025 036   107    0.01    0.00    0.01    0.02    12.6   0.001   0.013   0.022   0.013     0.1     0.0     0.1     0.0       1    0.00    0.00    0.00    0.00     0.0     0.0     0.0     0.0     0.0     0.0     0.0     0.0     0.0     0.0      0.      0.      0.      0.      0.      0.      0.      0.      0.      0.     0.0     0.0     0.0     0.0     0.0     0.0     0.0     0.0     0.0     0.0     0.0     0.0     0.0     0.0     0.0     0.0     0.0     0.0     0.0     0.0     0.0     0.0     0.0     0.0     0.0     0.0     0.0     0.0     0.0     0.0
 2025 037   108    0.01    0.00    0.01    0.02    12.6   0.001   0.013   0.022   0.013     0.1     0.0     0.1     0.0       1    0.00    0.00    0.00    0.00     0.0     0.0     0.0     0.0     0.0     0.0     0.0     0.0     0.0     0.0      0.      0.      0.      0.      0.      0.      0.      0.      0.      0.     0.0     0.0     0.0     0.0     0.0     0.0     0.0     0.0     0.0     0.0     0.0     0.0     0.0     0.0     0.0     0.0     0.0     0.0     0.0     0.0     0.0     0.0     0.0     0.0     0.0     0.0     0.0     0.0     0.0     0.0
 2025 038   109    0.01    0.00    0.01    0.02    12.6   0.001   0.013   0.022   0.013     0.1     0.0     0.1     0.0       1    0.00    0.00    0.00    0.00     0.0     0.0     0.0     0.0     0.0     0.0     0.0     0.0     0.0     0.0      0.      0.      0.      0.      0.      0.      0.      0.      0.      0.     0.0     0.0     0.0     0.0     0.0     0.0     0.0     0.0     0.0     0.0     0.0     0.0     0.0     0.0     0.0     0.0     0.0     0.0     0.0     0.0     0.0     0.0     0.0     0.0     0.0     0.0     0.0     0.0     0.0     0.0
 2025 039   110    0.01    0.00    0.01    0.02    12.6   0.001   0.013   0.022   0.013     0.1     0.0     0.1     0.0       1    0.00    0.00    0.00    0.00     0.0     0.0     0.0     0.0     0.0     0.0     0.0     0.0     0.0     0.0      0.      0.      0.      0.      0.      0.      0.      0.      0.      0.     0.0     0.0     0.0     0.0     0.0     0.0     0.0     0.0     0.0     0.0     0.0     0.0     0.0     0.0     0.0     0.0     0.0     0.0     0.0     0.0     0.0     0.0     0.0     0.0     0.0     0.0     0.0     0.0     0.0     0.0
 2025 040   111    0.01    0.00    0.01    0.02    12.6   0.001   0.013   0.022   0.013     0.1     0.0     0.0     0.0       1    0.00    0.00    0.00    0.00     0.0     0.0     0.0     0.0     0.0     0.0     0.0     0.0     0.0     0.0      0.      0.      0.      0.      0.      0.      0.      0.      0.      0.     0.0     0.0     0.0     0.0     0.0     0.0     0.0     0.0     0.0     0.0     0.0     0.0     0.0     0.0     0.0     0.0     0.0     0.0     0.0     0.0     0.0     0.0     0.0     0.0     0.0     0.0     0.0     0.0     0.0     0.0
 2025 041   112    0.01    0.00    0.01    0.02    12.6   0.001   0.013   0.022   0.013     0.1     0.0     0.0     0.0       1    0.00    0.00    0.00    0.00     0.0     0.0     0.0     0.0     0.0     0.0     0.0     0.0     0.0     0.0      0.      0.      0.      0.      0.      0.      0.      0.      0.      0.     0.0     0.0     0.0     0.0     0.0     0.0     0.0     0.0     0.0     0.0     0.0     0.0     0.0     0.0     0.0     0.0     0.0     0.0     0.0     0.0     0.0     0.0     0.0     0.0     0.0     0.0     0.0     0.0     0.0     0.0
 2025 042   113    0.01    0.00    0.01    0.02    12.6   0.001   0.013   0.022   0.013     0.1     0.0     0.0     0.0       1    0.00    0.00    0.00    0.00     0.0     0.0     0.0     0.0     0.0     0.0     0.0     0.0     0.0     0.0      0.      0.      0.      0.      0.      0.      0.      0.      0.      0.     0.0     0.0     0.0     0.0     0.0     0.0     0.0     0.0     0.0     0.0     0.0     0.0     0.0     0.0     0.0     0.0     0.0     0.0     0.0     0.0     0.0     0.0     0.0     0.0     0.0     0.0     0.0     0.0     0.0     0.0
 2025 043   114    0.01    0.00    0.01    0.02    12.6   0.001   0.013   0.022   0.013     0.0     0.0     0.0     0.0       1    0.00    0.00    0.00    0.00     0.0     0.0     0.0     0.0     0.0     0.0     0.0     0.0     0.0     0.0      0.      0.      0.      0.      0.      0.      0.      0.      0.      0.     0.0     0.0     0.0     0.0     0.0     0.0     0.0     0.0     0.0     0.0     0.0     0.0     0.0     0.0     0.0     0.0     0.0     0.0     0.0     0.0     0.0     0.0     0.0     0.0     0.0     0.0     0.0     0.0     0.0     0.0
 2025 044   115    0.01    0.00    0.01    0.02    12.6   0.001   0.013   0.022   0.013     0.0     0.0     0.0     0.0       1    0.00    0.00    0.00    0.00     0.0     0.0     0.0     0.0     0.0     0.0     0.0     0.0     0.0     0.0      0.      0.      0.      0.      0.      0.      0.      0.      0.      0.     0.0     0.0     0.0     0.0     0.0     0.0     0.0     0.0     0.0     0.0     0.0     0.0     0.0     0.0     0.0     0.0     0.0     0.0     0.0     0.0     0.0     0.0     0.0     0.0     0.0     0.0     0.0     0.0     0.0     0.0
 2025 045   116    0.01    0.00    0.01    0.02    12.6   0.001   0.013   0.022   0.013     0.0     0.0     0.0     0.0       1    0.00    0.00    0.00    0.00     0.0     0.0     0.0     0.0     0.0     0.0     0.0     0.0     0.0     0.0      0.      0.      0.      0.      0.      0.      0.      0.      0.      0.     0.0     0.0     0.0     0.0     0.0     0.0     0.0     0.0     0.0     0.0     0.0     0.0     0.0     0.0     0.0     0.0     0.0     0.0     0.0     0.0     0.0     0.0     0.0     0.0     0.0     0.0     0.0     0.0     0.0     0.0
 2025 046   117    0.01    0.00    0.01    0.02    12.6   0.001   0.013   0.022   0.013     0.0     0.0     0.0     0.0       1    0.00    0.00    0.00    0.00     0.0     0.0     0.0     0.0     0.0     0.0     0.0     0.0     0.0     0.0      0.      0.      0.      0.      0.      0.      0.      0.      0.      0.     0.0     0.0     0.0     0.0     0.0     0.0     0.0     0.0     0.0     0.0     0.0     0.0     0.0     0.0     0.0     0.0     0.0     0.0     0.0     0.0     0.0     0.0     0.0     0.0     0.0     0.0     0.0     0.0     0.0     0.0
 2025 047   118    0.01    0.00    0.01    0.02    12.6   0.001   0.013   0.022   0.013     0.0     0.0     0.0     0.0       1    0.00    0.00    0.00    0.00     0.0     0.0     0.0     0.0     0.0     0.0     0.0     0.0     0.0     0.0      0.      0.      0.      0.      0.      0.      0.      0.      0.      0.     0.0     0.0     0.0     0.0     0.0     0.0     0.0     0.0     0.0     0.0     0.0     0.0     0.0     0.0     0.0     0.0     0.0     0.0     0.0     0.0     0.0     0.0     0.0     0.0     0.0     0.0     0.0     0.0     0.0     0.0
 2025 048   119    0.01    0.00    0.01    0.02    12.6   0.001   0.013   0.022   0.013     0.1     0.0     0.0     0.0       1    0.00    0.00    0.00    0.00     0.0     0.0     0.0     0.0     0.0     0.0     0.0     0.0     0.0     0.0      0.      0.      0.      0.      0.      0.      0.      0.      0.      0.     0.0     0.0     0.0     0.0     0.0     0.0     0.0     0.0     0.0     0.0     0.0     0.0     0.0     0.0     0.0     0.0     0.0     0.0     0.0     0.0     0.0     0.0     0.0     0.0     0.0     0.0     0.0     0.0     0.0     0.0
 2025 049   120    0.01    0.00    0.01    0.02    12.6   0.001   0.013   0.022   0.013     0.1     0.1     0.0     0.0       1    0.00    0.00    0.00    0.00     0.0     0.0     0.0     0.0     0.0     0.0     0.0     0.0     0.0     0.0      0.      0.      0.      0.      0.      0.      0.      0.      0.      0.     0.0     0.0     0.0     0.0     0.0     0.0     0.0     0.0     0.0     0.0     0.0     0.0     0.0     0.0     0.0     0.0     0.0     0.0     0.0     0.0     0.0     0.0     0.0     0.0     0.0     0.0     0.0     0.0     0.0     0.0
 2025 050   121    0.01    0.00    0.01    0.02    12.6   0.001   0.013   0.022   0.013     0.1     0.1     0.0     0.0       0    0.00    0.00    0.00    0.00     0.0     0.0     0.0     0.0     0.0     0.0     0.0     0.0     0.0     0.0      0.      0.      0.      0.      0.      0.      0.      0.      0.      0.     0.0     0.0     0.0     0.0     0.0     0.0     0.0     0.0     0.0     0.0     0.0     0.0     0.0     0.0     0.0     0.0     0.0     0.0     0.0     0.0     0.0     0.0     0.0     0.0     0.0     0.0     0.0     0.0     0.0     0.0
 2025 051   122    0.01    0.00    0.01    0.02    12.6   0.001   0.013   0.022   0.013     0.1     0.1     0.0     0.0       0    0.00    0.00    0.00    0.00     0.0     0.0     0.0     0.0     0.0     0.0     0.0     0.0     0.0     0.0      0.      0.      0.      0.      0.      0.      0.      0.      0.      0.     0.0     0.0     0.0     0.0     0.0     0.0     0.0     0.0     0.0     0.0     0.0     0.0     0.0     0.0     0.0     0.0     0.0     0.0     0.0     0.0     0.0     0.0     0.0     0.0     0.0     0.0     0.0     0.0     0.0     0.0
 2025 052   123    0.01    0.00    0.01    0.02    12.6   0.001   0.013   0.022   0.013     0.1     0.1     0.0     0.0       0    0.00    0.00    0.00    0.00     0.0     0.0     0.0     0.0     0.0     0.0     0.0     0.0     0.0     0.0      0.      0.      0.      0.      0.      0.      0.      0.      0.      0.     0.0     0.0     0.0     0.0     0.0     0.0     0.0     0.0     0.0     0.0     0.0     0.0     0.0     0.0     0.0     0.0     0.0     0.0     0.0     0.0     0.0     0.0     0.0     0.0     0.0     0.0     0.0     0.0     0.0     0.0
 2025 053   124    0.01    0.00    0.01    0.02    12.6   0.001   0.013   0.022   0.013     0.1     0.1     0.0     0.0       0    0.00    0.00    0.00    0.00     0.0     0.0     0.0     0.0     0.0     0.0     0.0     0.0     0.0     0.0      0.      0.      0.      0.      0.      0.      0.      0.      0.      0.     0.0     0.0     0.0     0.0     0.0     0.0     0.0     0.0     0.0     0.0     0.0     0.0     0.0     0.0     0.0     0.0     0.0     0.0     0.0     0.0     0.0     0.0     0.0     0.0     0.0     0.0     0.0     0.0     0.0     0.0
 2025 054   125    0.01    0.00    0.01    0.02    12.6   0.001   0.013   0.022   0.013     0.1     0.1     0.0     0.0       0    0.00    0.00    0.00    0.00     0.0     0.0     0.0     0.0     0.0     0.0     0.0     0.0     0.0     0.0      0.      0.      0.      0.      0.      0.      0.      0.      0.      0.     0.0     0.0     0.0     0.0     0.0     0.0     0.0     0.0     0.0     0.0     0.0     0.0     0.0     0.0     0.0     0.0     0.0     0.0     0.0     0.0     0.0     0.0     0.0     0.0     0.0     0.0     0.0     0.0     0.0     0.0
 2025 055   126    0.01    0.00    0.01    0.02    12.6   0.001   0.013   0.022   0.013     0.1     0.1     0.0     0.0       1    0.00    0.00    0.00    0.00     0.0     0.0     0.0     0.0     0.0     0.0     0.0     0.0     0.0     0.0      0.      0.      0.      0.      0.      0.      0.      0.      0.      0.     0.0     0.0     0.0     0.0     0.0     0.0     0.0     0.0     0.0     0.0     0.0     0.0     0.0     0.0     0.0     0.0     0.0     0.0     0.0     0.0     0.0     0.0     0.0     0.0     0.0     0.0     0.0     0.0     0.0     0.0
 2025 056   127    0.01    0.00    0.01    0.02    12.6   0.001   0.013   0.022   0.013     0.1     0.1     0.0     0.0       1    0.00    0.00    0.00    0.00     0.0     0.0     0.0     0.0     0.0     0.0     0.0     0.0     0.0     0.0      0.      0.      0.      0.      0.      0.      0.      0.      0.      0.     0.0     0.0     0.0     0.0     0.0     0.0     0.0     0.0     0.0     0.0     0.0     0.0     0.0     0.0     0.0     0.0     0.0     0.0     0.0     0.0     0.0     0.0     0.0     0.0     0.0     0.0     0.0     0.0     0.0     0.0
 2025 057   128    0.01    0.00    0.01    0.02    12.6   0.001   0.013   0.022   0.013     0.1     0.1     0.0     0.0       1    0.00    0.00    0.00    0.00     0.0     0.0     0.0     0.0     0.0     0.0     0.0     0.0     0.0     0.0      0.      0.      0.      0.      0.      0.      0.      0.      0.      0.     0.0     0.0     0.0     0.0     0.0     0.0     0.0     0.0     0.0     0.0     0.0     0.0     0.0     0.0     0.0     0.0     0.0     0.0     0.0     0.0     0.0     0.0     0.0     0.0     0.0     0.0     0.0     0.0     0.0     0.0
 2025 058   129    0.01    0.00    0.01    0.02    12.6   0.001   0.013   0.022   0.013     0.1     0.1     0.0     0.0       6    0.00    0.01    0.00    0.00     0.0     0.0     0.0     0.0     0.0     0.0     0.0     0.0     0.0     0.0      1.      1.      1.      0.      0.      0.      0.      0.      0.      0.     0.0     0.0     0.0     0.0     0.0     0.0     0.0     0.0     0.0     0.0     0.0     0.0     0.0     0.0     0.0     0.0     0.0     0.0     0.0     0.0     0.0     0.0     0.0     0.0     0.0     0.0     0.0     0.0     0.0     0.0
 2025 059   130    0.01    0.00    0.01    0.02    12.6   0.001   0.013   0.022   0.013     0.0     0.1     0.0     0.0       6    0.00    0.01    0.00    0.00     0.0     0.0     0.0     0.0     0.0     0.0     0.0     0.0     0.0     0.0      1.      1.      1.      0.      0.      0.      0.      0.      1.      1.     0.0     0.0     0.0     0.0     0.0     0.0     0.0     0.0     0.0     0.0     0.0     0.0     0.0     0.0     0.0     0.0     0.0     0.0     0.0     0.0     0.0     0.0     0.0     0.0     0.0     0.0     0.0     0.0     0.0     0.0
 2025 060   131    0.01    0.00    0.01    0.02    12.6   0.001   0.013   0.022   0.013     0.0     0.0     0.0     0.0       5    0.00    0.01    0.00    0.00     0.0     0.0     0.0     0.0     0.0     0.0     0.0     0.0     0.0     0.0      0.      1.      0.      0.      0.      0.      0.      0.      1.      1.     0.0     0.0     0.0     0.0     0.0     0.0     0.0     0.0     0.0     0.0     0.0     0.0     0.0     0.0     0.0     0.0     0.0     0.0     0.0     0.0     0.0     0.0     0.0     0.0     0.0     0.0     0.0     0.0     0.0     0.0
 2025 061   132    0.01    0.00    0.01    0.02    12.6   0.001   0.013   0.022   0.013     0.0     0.1     0.0     0.0       5    0.00    0.00    0.00    0.00     0.0     0.0     0.0     0.0     0.0     0.0     0.0     0.0     0.0     0.0      0.      1.      0.      0.      0.      0.      0.      0.      0.      1.     0.0     0.0     0.0     0.0     0.0     0.0     0.0     0.0     0.0     0.0     0.0     0.0     0.0     0.0     0.0     0.0     0.0     0.0     0.0     0.0     0.0     0.0     0.0     0.0     0.0     0.0     0.0     0.0     0.0     0.0
 2025 062   133    0.01    0.00    0.01    0.02    12.6   0.001   0.013   0.022   0.013     0.1     0.1     0.0     0.0       4    0.00    0.00    0.00    0.00     0.0     0.0     0.0     0.0     0.0     0.0     0.0     0.0     0.0     0.0      0.      0.      0.      0.      0.      0.      0.      0.      0.      0.     0.0     0.0     0.0     0.0     0.0     0.0     0.0     0.0     0.0     0.0     0.0     0.0     0.0     0.0     0.0     0.0     0.0     0.0     0.0     0.0     0.0     0.0     0.0     0.0     0.0     0.0     0.0     0.0     0.0     0.0
 2025 063   134    0.01    0.00    0.01    0.02    12.6   0.001   0.013   0.022   0.013     0.1     0.1     0.0     0.0       4    0.00    0.00    0.00    0.00     0.0     0.0     0.0     0.0     0.0     0.0     0.0     0.0     0.0     0.0      0.      0.      0.      0.      0.      0.      0.      0.      0.      0.     0.0     0.0     0.0     0.0     0.0     0.0     0.0     0.0     0.0     0.0     0.0     0.0     0.0     0.0     0.0     0.0     0.0     0.0     0.0     0.0     0.0     0.0     0.0     0.0     0.0     0.0     0.0     0.0     0.0     0.0
 2025 064   135    0.01    0.00    0.01    0.02    12.6   0.001   0.013   0.022   0.013     0.1     0.1     0.0     0.0       3    0.00    0.00    0.00    0.00     0.0     0.0     0.0     0.0     0.0     0.0     0.0     0.0     0.0     0.0      0.      0.      0.      0.      0.      0.      0.      0.      0.      0.     0.0     0.0     0.0     0.0     0.0     0.0     0.0     0.0     0.0     0.0     0.0     0.0     0.0     0.0     0.0     0.0     0.0     0.0     0.0     0.0     0.0     0.0     0.0     0.0     0.0     0.0     0.0     0.0     0.0     0.0
 2025 065   136    0.01    0.00    0.01    0.02    12.6   0.001   0.013   0.022   0.013     0.1     0.1     0.0     0.0       3    0.00    0.00    0.00    0.00     0.0     0.0     0.0     0.0     0.0     0.0     0.0     0.0     0.0     0.0      0.      0.      0.      0.      0.      0.      0.      0.      0.      0.     0.0     0.0     0.0     0.0     0.0     0.0     0.0     0.0     0.0     0.0     0.0     0.0     0.0     0.0     0.0     0.0     0.0     0.0     0.0     0.0     0.0     0.0     0.0     0.0     0.0     0.0     0.0     0.0     0.0     0.0
 2025 066   137    0.01    0.00    0.01    0.02    12.6   0.001   0.013   0.022   0.013     0.1     0.1     0.0     0.0       3    0.00    0.00    0.00    0.00     0.0     0.0     0.0     0.0     0.0     0.0     0.0     0.0     0.0     0.0      0.      0.      0.      0.      0.      0.      0.      0.      0.      0.     0.0     0.0     0.0     0.0     0.0     0.0     0.0     0.0     0.0     0.0     0.0     0.0     0.0     0.0     0.0     0.0     0.0     0.0     0.0     0.0     0.0     0.0     0.0     0.0     0.0     0.0     0.0     0.0     0.0     0.0
 2025 067   138    0.01    0.00    0.01    0.02    12.6   0.001   0.013   0.022   0.013     0.1     0.1     0.0     0.0       3    0.00    0.00    0.00    0.00     0.0     0.0     0.0     0.0     0.0     0.0     0.0     0.0     0.0     0.0      0.      0.      0.      0.      0.      0.      0.      0.      0.      0.     0.0     0.0     0.0     0.0     0.0     0.0     0.0     0.0     0.0     0.0     0.0     0.0     0.0     0.0     0.0     0.0     0.0     0.0     0.0     0.0     0.0     0.0     0.0     0.0     0.0     0.0     0.0     0.0     0.0     0.0
 2025 068   139    0.01    0.00    0.01    0.02    12.7   0.001   0.013   0.022   0.013     0.1     0.1     0.0     0.0       6    0.00    0.01    0.00    0.00     0.0     0.0     0.0     0.0     0.0     0.0     0.0     0.0     0.0     0.0      0.      1.      1.      0.      0.      0.      0.      0.      1.      1.     0.0     0.0     0.0     0.0     0.0     0.0     0.0     0.0     0.0     0.0     0.0     0.0     0.0     0.0     0.0     0.0     0.0     0.0     0.0     0.0     0.0     0.0     0.0     0.0     0.0     0.0     0.0     0.0     0.0     0.0
[...]
 2025 187   258    0.13    0.03    0.16    0.04   137.8   0.005   0.138   0.032   0.165     0.1     0.1     0.2     0.0     202    0.00    0.20    0.00    0.21     0.0     0.0     0.0     0.0     0.0     0.0     0.0     0.0     0.0     0.0     11.      8.     14.     13.     12.     11.     11.      9.     17.     38.     0.0     0.0     0.0     0.0     0.0     0.0     0.0     0.0     0.0     0.0     0.0     0.0     0.0     0.0     0.0     0.0     0.0     0.0     0.0     0.0     0.0     0.0     0.0     0.0     0.0     0.0     0.0     0.0     0.0     0.0
 2025 188   259    0.13    0.03    0.16    0.04   138.0   0.005   0.138   0.032   0.165     0.1     0.1     0.2     0.0     189    0.00    0.19    0.00    0.19     0.0     0.0     0.0     0.0     0.0     0.0     0.0     0.0     0.0     0.0      9.      7.     13.     12.     11.     10.     10.      9.     16.     36.     0.0     0.0     0.0     0.0     0.0     0.0     0.0     0.0     0.0     0.0     0.0     0.0     0.0     0.0     0.0     0.0     0.0     0.0     0.0     0.0     0.0     0.0     0.0     0.0     0.0     0.0     0.0     0.0     0.0     0.0
 2025 189   260    0.13    0.03    0.16    0.04   138.2   0.005   0.139   0.032   0.165     0.1     0.1     0.2     0.0     175    0.00    0.17    0.00    0.18     0.0     0.0     0.0     0.0     0.0     0.0     0.0     0.0     0.0     0.0     11.      6.     12.     11.     10.      9.      9.      8.     15.     33.     0.0     0.0     0.0     0.0     0.0     0.0     0.0     0.0     0.0     0.0     0.0     0.0     0.0     0.0     0.0     0.0     0.0     0.0     0.0     0.0     0.0     0.0     0.0     0.0     0.0     0.0     0.0     0.0     0.0     0.0
 2025 190   261    0.14    0.03    0.16    0.04   138.3   0.005   0.139   0.032   0.165     0.1     0.1     0.2     0.0     169    0.00    0.17    0.00    0.17     0.0     0.0     0.0     0.0     0.0     0.0     0.0     0.0     0.0     0.0     17.      6.     11.     10.      9.      9.      9.      7.     14.     31.     0.0     0.0     0.0     0.0     0.0     0.0     0.0     0.0     0.0     0.0     0.0     0.0     0.0     0.0     0.0     0.0     0.0     0.0     0.0     0.0     0.0     0.0     0.0     0.0     0.0     0.0     0.0     0.0     0.0     0.0
 2025 191   262    0.14    0.03    0.16    0.04   138.5   0.005   0.139   0.032   0.166     0.1     0.1     0.2     0.0     154    0.00    0.15    0.00    0.16     0.0     0.0     0.0     0.0     0.0     0.0     0.0     0.0     0.0     0.0     14.      5.     10.      9.      8.      8.      8.      7.     13.     28.     0.0     0.0     0.0     0.0     0.0     0.0     0.0     0.0     0.0     0.0     0.0     0.0     0.0     0.0     0.0     0.0     0.0     0.0     0.0     0.0     0.0     0.0     0.0     0.0     0.0     0.0     0.0     0.0     0.0     0.0
 2025 192   263    0.14    0.03    0.16    0.04   138.6   0.005   0.139   0.032   0.166     0.1     0.1     0.2     0.0     147    0.00    0.15    0.00    0.15     0.0     0.0     0.0     0.0     0.0     0.0     0.0     0.0     0.0     0.0     13.      5.      9.      9.      8.      8.      7.      6.     12.     27.     0.0     0.0     0.0     0.0     0.0     0.0     0.0     0.0     0.0     0.0     0.0     0.0     0.0     0.0     0.0     0.0     0.0     0.0     0.0     0.0     0.0     0.0     0.0     0.0     0.0     0.0     0.0     0.0     0.0     0.0
 2025 193   264    0.14    0.03    0.16    0.04   138.8   0.005   0.139   0.032   0.166     0.1     0.1     0.2     0.0     144    0.00    0.14    0.00    0.15     0.0     0.0     0.0     0.0     0.0     0.0     0.0     0.0     0.0     0.0     12.      5.      9.      9.      8.      7.      7.      6.     12.     26.     0.0     0.0     0.0     0.0     0.0     0.0     0.0     0.0     0.0     0.0     0.0     0.0     0.0     0.0     0.0     0.0     0.0     0.0     0.0     0.0     0.0     0.0     0.0     0.0     0.0     0.0     0.0     0.0     0.0     0.0
 2025 194   265    0.14    0.03    0.16    0.04   138.9   0.005   0.139   0.032   0.166     0.1     0.1     0.2     0.0     143    0.00    0.14    0.00    0.15     0.0     0.0     0.0     0.0     0.0     0.0     0.0     0.0     0.0     0.0     11.      5.      9.      9.      8.      8.      7.      6.     12.     26.     0.0     0.0     0.0     0.0     0.0     0.0     0.0     0.0     0.0     0.0     0.0     0.0     0.0     0.0     0.0     0.0     0.0     0.0     0.0     0.0     0.0     0.0     0.0     0.0     0.0     0.0     0.0     0.0     0.0     0.0
 2025 195   266    0.14    0.03    0.16    0.04   139.1   0.005   0.139   0.032   0.166     0.1     0.1     0.2     0.0     153    0.00    0.15    0.00    0.16     0.0     0.0     0.0     0.0     0.0     0.0     0.0     0.0     0.0     0.0     11.      5.     10.     10.      9.      8.      8.      7.     13.     28.     0.0     0.0     0.0     0.0     0.0     0.0     0.0     0.0     0.0     0.0     0.0     0.0     0.0     0.0     0.0     0.0     0.0     0.0     0.0     0.0     0.0     0.0     0.0     0.0     0.0     0.0     0.0     0.0     0.0     0.0
 2025 196   267    0.14    0.03    0.16    0.04   139.2   0.005   0.140   0.032   0.166     0.1     0.0     0.1     0.0     150    0.00    0.15    0.00    0.14     0.0     0.0     0.0     0.0     0.0     0.0     0.0     0.0     0.0     0.0      0.      5.     11.     10.      9.      9.      9.      7.     14.     30.     0.0     0.0     0.0     0.0     0.0     0.0     0.0     0.0     0.0     0.0     0.0     0.0     0.0     0.0     0.0     0.0     0.0     0.0     0.0     0.0     0.0     0.0     0.0     0.0     0.0     0.0     0.0     0.0     0.0     0.0
 2025 197   268    0.14    0.03    0.16    0.04   139.4   0.005   0.140   0.032   0.166     0.1     0.0     0.1     0.0     194    0.00    0.19    0.00    0.19     0.0     0.0     0.0     0.0     0.0     0.0     0.0     0.0     0.0     0.0     38.      6.     11.     10.      9.      9.      9.      7.     14.     32.     0.0     0.0     0.0     0.0     0.0     0.0     0.0     0.0     0.0     0.0     0.0     0.0     0.0     0.0     0.0     0.0     0.0     0.0     0.0     0.0     0.0     0.0     0.0     0.0     0.0     0.0     0.0     0.0     0.0     0.0
 2025 198   269    0.14    0.03    0.16    0.04   139.6   0.005   0.140   0.032   0.167     0.0     0.0     0.0     0.0     215    0.00    0.22    0.00    0.17     0.0     0.0     0.0     0.0     0.0     0.0     0.0     0.0     0.0     0.0     45.     25.     10.     10.      9.      9.      8.      7.     14.     32.     0.0     0.0     0.0     0.0     0.0     0.0     0.0     0.0     0.0     0.0     0.0     0.0     0.0     0.0     0.0     0.0     0.0     0.0     0.0     0.0     0.0     0.0     0.0     0.0     0.0     0.0     0.0     0.0     0.0     0.0
 2025 199   270    0.14    0.03    0.16    0.04   139.9   0.005   0.140   0.032   0.167     0.1     0.0     0.1     0.0     261    0.00    0.26    0.00    0.21     0.0     0.0     0.0     0.0     0.0     0.0     0.0     0.0     0.0     0.0     68.     54.     11.      9.      8.      8.      8.      7.     13.     31.     0.1     0.1     0.0     0.0     0.0     0.0     0.0     0.0     0.0     0.0     0.0     0.0     0.0     0.0     0.0     0.0     0.0     0.0     0.0     0.0     0.0     0.1     0.0     0.0     0.0     0.0     0.0     0.0     0.0     0.0
 2025 200   271    0.14    0.03    0.16    0.04   140.2   0.005   0.141   0.032   0.167     0.1     0.0     0.2     0.0     289    0.00    0.29    0.00    0.29     0.0     0.0     0.0     0.0     0.0     0.0     0.0     0.0     0.0     0.0     75.     79.     13.      9.      8.      8.      8.      6.     12.     30.     0.1     0.1     0.0     0.0     0.0     0.0     0.0     0.0     0.0     0.0     0.0     0.0     0.0     0.0     0.0     0.0     0.0     0.0     0.0     0.0     0.1     0.1     0.0     0.0     0.0     0.0     0.0     0.0     0.0     0.0
 2025 201   272    0.14    0.03    0.16    0.04   140.5   0.005   0.141   0.032   0.167     0.2     0.0     0.2     0.0     316    0.00    0.32    0.00    0.32     0.0     0.0     0.0     0.0     0.0     0.0     0.0     0.0     0.0     0.0     80.     97.     13.      9.      8.      8.      8.      7.     12.     31.     0.1     0.1     0.0     0.0     0.0     0.0     0.0     0.0     0.0     0.0     0.0     0.0     0.0     0.0     0.0     0.0     0.0     0.0     0.0     0.0     0.1     0.1     0.0     0.0     0.0     0.0     0.0     0.0     0.0     0.0
 2025 202   273    0.14    0.03    0.16    0.04   140.8   0.005   0.141   0.032   0.168     0.2     0.0     0.2     0.0     339    0.00    0.34    0.00    0.35     0.0     0.0     0.0     0.0     0.0     0.0     0.0     0.0     0.0     0.0     87.    111.     14.      9.      8.      8.      8.      7.     12.     32.     0.1     0.1     0.0     0.0     0.0     0.0     0.0     0.0     0.0     0.0     0.0     0.0     0.0     0.0     0.0     0.0     0.0     0.0     0.0     0.0     0.1     0.1     0.0     0.0     0.0     0.0     0.0     0.0     0.0     0.0
 2025 203   274    0.14    0.03    0.16    0.04   141.2   0.005   0.142   0.032   0.168     0.0     0.0     0.0     0.0     317    0.00    0.32    0.00    0.17     0.0     0.0     0.0     0.0     0.0     0.0     0.0     0.0     0.0     0.0     65.     94.     29.      9.      8.      8.      8.      7.     12.     32.     0.1     0.1     0.0     0.0     0.0     0.0     0.0     0.0     0.0     0.0     0.0     0.0     0.0     0.0     0.0     0.0     0.0     0.0     0.0     0.0     0.0     0.0     0.0     0.0     0.0     0.0     0.0     0.0     0.0     0.0
 2025 204   275    0.14    0.03    0.16    0.04   141.5   0.005   0.142   0.032   0.168     0.0     0.0     0.0     0.0     380    0.00    0.38    0.00    0.20     0.0     0.0     0.0     0.0     0.0     0.0     0.0     0.0     0.0     0.0     81.    114.     50.      9.      9.      8.      8.      7.     13.     34.     0.1     0.1     0.1     0.0     0.0     0.0     0.0     0.0     0.0     0.0     0.0     0.0     0.0     0.0     0.0     0.0     0.0     0.0     0.0     0.0     0.0     0.0     0.1     0.0     0.0     0.0     0.0     0.0     0.0     0.0
 2025 205   276    0.14    0.03    0.16    0.04   142.0   0.005   0.142   0.032   0.168     0.1     0.0     0.1     0.0     434    0.00    0.43    0.00    0.28     0.0     0.0     0.0     0.0     0.0     0.0     0.0     0.0     0.0     0.0    101.    139.     61.      9.      9.      8.      8.      7.     13.     34.     0.1     0.1     0.1     0.0     0.0     0.0     0.0     0.0     0.0     0.0     0.0     0.0     0.0     0.0     0.0     0.0     0.0     0.0     0.0     0.0     0.1     0.0     0.1     0.0     0.0     0.0     0.0     0.0     0.0     0.0
 2025 206   277    0.14    0.03    0.16    0.04   142.4   0.005   0.143   0.032   0.169     0.1     0.0     0.1     0.0     423    0.00    0.42    0.00    0.25     0.0     0.0     0.0     0.0     0.0     0.0     0.0     0.0     0.0     0.0     93.    132.     70.      9.      8.      8.      8.      7.     12.     33.     0.1     0.1     0.1     0.0     0.0     0.0     0.0     0.0     0.0     0.0     0.0     0.0     0.0     0.0     0.0     0.0     0.0     0.0     0.0     0.0     0.0     0.0     0.1     0.0     0.0     0.0     0.0     0.0     0.0     0.0
 2025 207   278    0.14    0.03    0.16    0.04   142.8   0.005   0.143   0.035   0.169     0.0     0.0     0.0     4.0     394    0.16    0.39    3.88    0.25     2.1     1.9     0.0     0.0     0.0     0.0     0.0     0.0     0.0     0.0     70.    122.     76.     12.      8.      7.      7.      6.     11.     32.     0.1     0.2     0.1     0.0     0.0     0.0     0.0     0.0     0.0     0.0     2.0     1.8     0.0     0.0     0.0     0.0     0.0     0.0     0.0     0.0     0.0     0.1     0.1     0.0     0.0     0.0     0.0     0.0     0.0     0.0
 2025 208   279    0.14    0.03    0.16    0.05   143.2   0.005   0.144   0.040   0.169     0.0     0.0     0.0     5.1     382    0.20    0.38    4.91    0.23     2.5     2.6     0.0     0.0     0.0     0.0     0.0     0.0     0.0     0.0     63.    106.     83.     18.      8.      7.      7.      6.     11.     31.     0.1     0.2     0.1     0.0     0.0     0.0     0.0     0.0     0.0     0.0     2.4     2.5     0.0     0.0     0.0     0.0     0.0     0.0     0.0     0.0     0.0     0.0     0.0     0.0     0.0     0.0     0.0     0.0     0.0     0.0
 2025 209   280    0.14    0.03    0.16    0.05   143.6   0.005   0.144   0.045   0.169     0.0     0.1     0.0     4.9     405    0.20    0.40    4.66    0.24     2.3     2.5     0.0     0.0     0.0     0.0     0.0     0.0     0.0     0.0     68.    109.     88.     26.      8.      7.      7.      6.     11.     32.     0.1     0.2     0.1     0.0     0.0     0.0     0.0     0.0     0.0     0.0     2.2     2.4     0.0     0.0     0.0     0.0     0.0     0.0     0.0     0.0     0.0     0.1     0.0     0.0     0.0     0.0     0.0     0.0     0.0     0.0
 2025 210   281    0.14    0.03    0.16    0.06   144.0   0.006   0.144   0.051   0.170     0.0     0.1     0.0     5.8     380    0.23    0.38    5.55    0.22     2.5     3.3     0.0     0.0     0.0     0.0     0.0     0.0     0.0     0.0     59.     90.     88.     34.      7.      7.      7.      6.     11.     31.     0.1     0.2     0.1     0.0     0.0     0.0     0.0     0.0     0.0     0.0     2.4     3.1     0.0     0.0     0.0     0.0     0.0     0.0     0.0     0.0     0.0     0.0     0.0     0.0     0.0     0.0     0.0     0.0     0.0     0.0
 2025 211   282    0.14    0.03    0.16    0.06   144.4   0.006   0.145   0.056   0.170     0.1     0.4     0.1     5.8     419    0.25    0.42    5.54    0.29     1.4     2.3     2.1     0.0     0.0     0.0     0.0     0.0     0.0     0.0     81.    108.     87.     34.      7.      7.      7.      6.     10.     30.     0.1     0.2     0.2     0.0     0.0     0.0     0.0     0.0     0.0     0.0     1.4     2.2     2.0     0.0     0.0     0.0     0.0     0.0     0.0     0.0     0.0     0.1     0.1     0.0     0.0     0.0     0.0     0.0     0.0     0.0
 2025 212   283    0.14    0.03    0.16    0.07   144.8   0.006   0.145   0.061   0.170     0.1     0.5     0.1     5.0     409    0.22    0.41    4.78    0.29     1.4     1.8     1.8     0.0     0.0     0.0     0.0     0.0     0.0     0.0     74.    112.     84.     34.      8.      7.      7.      6.     10.     29.     0.1     0.2     0.2     0.0     0.0     0.0     0.0     0.0     0.0     0.0     1.4     1.7     1.7     0.0     0.0     0.0     0.0     0.0     0.0     0.0     0.0     0.1     0.1     0.0     0.0     0.0     0.0     0.0     0.0     0.0
 2025 213   284    0.14    0.03    0.16    0.07   145.2   0.006   0.146   0.064   0.171     0.2     0.9     0.1     3.7     398    0.17    0.40    3.52    0.30     1.0     1.3     1.4     0.0     0.0     0.0     0.0     0.0     0.0     0.0     70.    106.     83.     34.     10.      7.      7.      6.      9.     29.     0.1     0.2     0.1     0.0     0.0     0.0     0.0     0.0     0.0     0.0     0.9     1.3     1.3     0.0     0.0     0.0     0.0     0.0     0.0     0.0     0.1     0.1     0.1     0.0     0.0     0.0     0.0     0.0     0.0     0.0
 2025 214   285    0.14    0.03    0.16    0.08   145.6   0.006   0.146   0.070   0.171     0.0     0.2     0.0     6.0     378    0.28    0.38    5.69    0.28     2.6     2.0     1.4     0.0     0.0     0.0     0.0     0.0     0.0     0.0     54.    102.     81.     35.     13.      6.      6.      6.      9.     28.     0.2     0.2     0.2     0.0     0.0     0.0     0.0     0.0     0.0     0.0     2.5     1.9     1.4     0.0     0.0     0.0     0.0     0.0     0.0     0.0     0.0     0.1     0.1     0.0     0.0     0.0     0.0     0.0     0.0     0.0
 2025 215   286    0.14    0.03    0.16    0.08   145.9   0.007   0.146   0.077   0.171     0.0     0.2     0.0     7.5     354    0.35    0.35    7.11    0.26     2.7     2.8     1.9     0.0     0.0     0.0     0.0     0.0     0.0     0.0     48.     83.     80.     35.     16.      6.      6.      5.      9.     27.     0.2     0.2     0.2     0.0     0.0     0.0     0.0     0.0     0.0     0.0     2.6     2.7     1.8     0.0     0.0     0.0     0.0     0.0     0.0     0.0     0.0     0.0     0.1     0.0     0.0     0.0     0.0     0.0     0.0     0.0
 2025 216   287    0.14    0.03    0.16    0.09   146.3   0.007   0.147   0.084   0.171     0.1     0.7     0.1     7.3     375    0.35    0.37    6.91    0.31     1.7     2.1     1.9     1.6     0.0     0.0     0.0     0.0     0.0     0.0     62.     90.     78.     34.     20.      6.      6.      5.      9.     27.     0.1     0.2     0.2     0.1     0.0     0.0     0.0     0.0     0.0     0.0     1.6     2.0     1.8     1.5     0.0     0.0     0.0     0.0     0.0     0.0     0.0     0.1     0.1     0.1     0.0     0.0     0.0     0.0     0.0     0.0
 2025 217   288    0.14    0.03    0.16    0.10   146.7   0.008   0.147   0.091   0.172     0.1     0.7     0.1     7.2     377    0.35    0.38    6.83    0.32     1.8     1.9     1.8     1.7     0.0     0.0     0.0     0.0     0.0     0.0     60.     93.     78.     35.     21.      6.      6.      5.      9.     27.     0.1     0.2     0.2     0.1     0.0     0.0     0.0     0.0     0.0     0.0     1.7     1.8     1.7     1.6     0.0     0.0     0.0     0.0     0.0     0.0     0.0     0.1     0.1     0.1     0.0     0.0     0.0     0.0     0.0     0.0
 2025 218   289    0.14    0.04    0.16    0.10   147.1   0.008   0.147   0.095   0.172     0.3     1.9     0.2     4.7     396    0.23    0.40    4.50    0.36     0.7     1.3     1.3     1.4     0.0     0.0     0.0     0.0     0.0     0.0     64.     97.     81.     37.     24.      7.      6.      6.      9.     28.     0.1     0.2     0.1     0.1     0.0     0.0     0.0     0.0     0.0     0.0     0.7     1.2     1.3     1.4     0.0     0.0     0.0     0.0     0.0     0.0     0.1     0.1     0.1     0.1     0.0     0.0     0.0     0.0     0.0     0.0
 2025 219   290    0.14    0.04    0.16    0.10   147.4   0.008   0.148   0.096   0.172     0.5     2.9     0.3     0.8     387    0.04    0.39    0.80    0.38     0.0     0.2     0.2     0.4     0.0     0.0     0.0     0.0     0.0     0.0     61.     93.     78.     36.     25.      8.      6.      5.      9.     27.     0.1     0.1     0.1     0.1     0.0     0.0     0.0     0.0     0.0     0.0     0.0     0.2     0.2     0.4     0.0     0.0     0.0     0.0     0.0     0.0     0.1     0.1     0.1     0.0     0.0     0.0     0.0     0.0     0.0     0.0
 2025 220   291    0.14    0.04    0.16    0.10   147.8   0.008   0.148   0.096   0.173     0.5     2.9     0.3     0.0     395    0.00    0.39    0.00    0.39     0.0     0.0     0.0     0.0     0.0     0.0     0.0     0.0     0.0     0.0     59.     95.     80.     38.     28.      8.      6.      6.      9.     27.     0.1     0.1     0.1     0.0     0.0     0.0     0.0     0.0     0.0     0.0     0.0     0.0     0.0     0.0     0.0     0.0     0.0     0.0     0.0     0.0     0.1     0.1     0.1     0.0     0.0     0.0     0.0     0.0     0.0     0.0
 2025 221   292    0.14    0.04    0.16    0.10   148.3   0.008   0.149   0.096   0.173     0.5     2.9     0.3     0.0     428    0.00    0.43    0.00    0.42     0.0     0.0     0.0     0.0     0.0     0.0     0.0     0.0     0.0     0.0     61.    104.     88.     42.     32.      9.      7.      6.     10.     29.     0.1     0.1     0.1     0.0     0.0     0.0     0.0     0.0     0.0     0.0     0.0     0.0     0.0     0.0     0.0     0.0     0.0     0.0     0.0     0.0     0.1     0.1     0.1     0.0     0.0     0.0     0.0     0.0     0.0     0.0
