*SIMULATION OVERVIEW FILE

*DSSAT Cropping System Model Ver. 4.8.2.000 -release  JAN 12, 2026 12:42:39

*RUN   1        : No N                      WHAPS048 HWOC2501    1
 MODEL          : WHAPS048 - Wheat
 EXPERIMENT     : HWOC2501 WH
 DATA PATH      : C:/DSSAT48/Wheat/
 TREATMENT  1   : No N                      WHAPS048


 CROP           : Wheat            CULTIVAR : SU Mangold       ECOTYPE :DFAULT
 STARTING DATE  : OCT 22 2024
 PLANTING DATE  : OCT 23 2024      PLANTS/m2 :   380.0    ROW SPACING :  12.cm
 WEATHER        : LL91   2024
 SOIL           : IB00000007     TEXTURE : SL    - DEFAULT - DEEP SANDY LOAM
 SOIL INIT COND : DEPTH:210cm EXTR. H2O:229.2mm  NO3: 49.5kg/ha  NH4:  5.4kg/ha
 WATER BALANCE  : RAINFED
 IRRIGATION     : NOT IRRIGATED
 NITROGEN BAL.  : SOIL-N & N-UPTAKE SIMULATION; NO N-FIXATION
 N-FERTILIZER   :        0 kg/ha IN     0 APPLICATIONS
 RESIDUE/MANURE : INITIAL :  2000 kg/ha ;       0 kg/ha IN     0 APPLICATIONS
 ENVIRONM. OPT. : DAYL=    0.00  SRAD=    0.00  TMAX=    0.00  TMIN=    0.00
                  RAIN=    0.00  CO2 =    0.00  DEW =    0.00  WIND=    0.00
 SIMULATION OPT : WATER   :Y  NITROGEN:Y  N-FIX:N  PHOSPH :N  PESTS  :N
                  PHOTO   :C  ET      :R  INFIL:S  HYDROL :R  SOM    :G
                  CO2 420ppm  NSWIT   :1  EVAP :S  SOIL   :2  STEMP  :D
 MANAGEMENT OPT : PLANTING:R  IRRIG   :N  FERT :R  RESIDUE:N  HARVEST:M
                  WEATHER :M  TILLAGE :Y

*SUMMARY OF SOIL AND GENETIC INPUT PARAMETERS

   SOIL LOWER UPPER   SAT  EXTR  INIT   ROOT   BULK     pH    NO3    NH4    ORG
  DEPTH LIMIT LIMIT    SW    SW    SW   DIST   DENS                          C
   cm   cm3/cm3    cm3/cm3    cm3/cm3         g/cm3         ugN/g  ugN/g     %
-------------------------------------------------------------------------------
  0-  5 0.052 0.176 0.359 0.124 0.221   1.00   1.61   6.50   1.46   0.16   0.70
  5- 15 0.052 0.176 0.359 0.124 0.231   1.00   1.61   6.50   1.46   0.16   0.70
 15- 30 0.052 0.176 0.359 0.124 0.242   0.64   1.61   6.50   1.46   0.16   0.66
 30- 45 0.073 0.192 0.360 0.119 0.251   0.47   1.61   6.50   1.46   0.16   0.58
 45- 60 0.073 0.192 0.360 0.119 0.257   0.35   1.61   6.50   1.46   0.16   0.58
 60- 90 0.128 0.232 0.361 0.104 0.257   0.22   1.61   6.50   1.46   0.16   0.43
 90-120 0.143 0.243 0.359 0.100 0.255   0.12   1.62   6.50   1.46   0.16   0.26
120-150 0.138 0.243 0.360 0.105 0.251   0.07   1.62   6.50   1.46   0.16   0.12
150-180 0.138 0.244 0.361 0.106 0.246   0.04   1.62   6.50   1.46   0.16   0.04
180-210 0.138 0.244 0.361 0.106 0.243   0.02   1.62   6.50   1.46   0.16   0.01

TOT-210  24.3  47.2  75.6  22.9  52.2  <--cm   -  kg/ha-->   49.5    5.4 102525
SOIL ALBEDO    : 0.13      EVAPORATION LIMIT : 6.00         MIN. FACTOR  : 1.00
RUNOFF CURVE # :68.00      DRAINAGE RATE     : 0.50         FERT. FACTOR : 1.00

 Wheat            CULTIVAR: LL0001-SU Mangold         ECOTYPE: DFAULT


*SIMULATED CROP AND SOIL STATUS AT MAIN DEVELOPMENT STAGES

 RUN NO.     1     No N                    

        CROP GROWTH     BIOMASS         LEAF   CROP N     STRESS      STRESS                                           
   DATE  AGE STAGE        kg/ha    LAI   NUM  kg/ha  %   H2O  Nitr Phos1 Phos2  RSTG                                   
 ------  --- ----------   -----  -----  ----  ---  ---  ----  ----  ----  ----  ----                                   
 22 OCT    0 Fallow           0   0.00   0.0    0  0.0  0.00  0.00  0.00  0.00     7
 23 OCT    0 Sowing           0   0.00   0.0    0  0.0  0.00  0.00  0.00  0.00     8
 25 OCT    2 Germinate        0   0.00   0.0    0  0.0  0.00  0.00  0.00  0.00     9
 28 OCT    5 Emergence       15   0.02   0.0    1  6.4  0.00  0.01  0.00  0.00     1
 28 APR  187 End Juveni     535   0.58   0.0   12  2.3  0.42  0.00  0.00  0.00     2
 24 MAY  213 End Veg       1162   0.87   0.0   20  1.7  0.97  0.00  0.00  0.00     3
  6 JUN  226 End Ear Gr    1821   0.75   0.0   25  1.4  0.95  0.00  0.00  0.00     4
 16 JUN  236 Beg Gr Fil    2883   0.63   0.0   29  1.0  0.96  0.00  0.00  0.00     5
 20 JUL  270 Maturity      3952   0.00   0.0   30  0.8  0.80  0.03  0.00  0.00     6
 21 JUL  271 Maturity      3952   0.00   0.0   30  0.8  0.00  1.00  0.00  0.00     7
 21 JUL  271 Harvest       3952   0.00   0.0   30  0.8  0.00  0.00  0.00  0.00     7


*MAIN GROWTH AND DEVELOPMENT VARIABLES

@     VARIABLE                                         SIMULATED     MEASURED
      --------                                         ---------     --------
      Anthesis day (dap)                                     226          224
      Physiological maturity day (dap)                       271          255
      Yield at harvest maturity (kg [dm]/ha)                1329          -99
      Number at maturity (no/m2)                            4762          -99
      Unit wt at maturity (g [dm]/unit)                     27.9          -99
      Number at maturity (no/unit)                          12.5          -99
      Tops weight at maturity (kg [dm]/ha)                  3952          -99
      By-product produced (stalk) at maturity (kg[dm]/ha       0          -99
      Leaf area index, maximum                              0.88          -99
      Harvest index at maturity                            0.336          -99
      Grain N at maturity (kg/ha)                             21          -99
      Tops N at maturity (kg/ha)                              30          -99
      Stem N at maturity (kg/ha)                               0          -99
      Grain N at maturity (%)                                1.6          -99
      Tops weight at anthesis (kg [dm]/ha)                     2          -99
      Tops N at anthesis (kg/ha)                              33          -99
      Leaf number per stem at maturity                      0.00          -99
      Emergence day (dap)                                      5            6


*ENVIRONMENTAL AND STRESS FACTORS

 |-----Development Phase------|--------------------------------------Environment--------------------------------------|-----------------Stress-----------------|
                              |---------------Average--------------|-----Cumulative-----|--------Count of days--------|          (0=Min, 1=Max Stress)         |
                         Time  Temp  Temp  Temp Solar Photop                Evapo    Pot TMIN TMIN TMAX TMAX TMAX RAIN|----Water----|---Nitrogen--|-Phosphorus-|
                         Span   Max   Min  Mean   Rad  [day]    CO2   Rain  Trans     ET   <    <    >    >    >    >   Photo         Photo         Photo
                         days     C     C     C MJ/m2     hr    ppm     mm     mm    mm   0 C  2 C 30 C 32 C 34 C  0mm  synth Growth  synth Growth  synth Growth
----------------------------------------------------------------------------------------------------------------------------------------------------------------
 Emergence-End Juvenile   182   7.7  -0.1   3.8   7.1   9.96  420.5  256.3  121.4  205.9  101  130    0    0    0  128  0.361  0.412  0.001  0.002  0.000  0.000
 End Juvenil-Floral Init   26  20.4   4.9  12.7  26.6  14.85  420.5   22.0   40.2  139.4    2    5    0    0    0    4  0.960  0.974  0.000  0.000  0.000  0.000
 Floral Init-End Lf Grow   13  22.9   9.5  16.2  22.2  15.66  420.5   29.4   29.7   63.3    1    1    1    1    0    9  0.928  0.953  0.000  0.000  0.000  0.000
 End Lf Grth-Beg Grn Fil   10  25.1  10.0  17.5  28.6  15.93  420.5   17.4   41.8   65.0    0    0    2    1    1    5  0.931  0.954  0.000  0.000  0.000  0.000
 Grain Filling Phase       34  28.9  12.6  20.7  28.2  15.87  420.5   32.1   72.0  237.2    0    0   14    8    5    9  0.814  0.827  0.000  0.000  0.000  0.000
   
 Planting to Harvest      271  13.1   3.0   8.1  13.1  11.68  420.5  360.3  310.8  721.6  104  136   17   10    6  161  0.515  0.555  0.003  0.005  0.000  0.000
----------------------------------------------------------------------------------------------------------------------------------------------------------------


*Resource Productivity
 Growing season length: 271 days 

 Precipitation during growing season       360.3 mm[rain]
   Dry Matter Productivity                  1.10 kg[DM]/m3[rain]          =   11.0 kg[DM]/ha per mm[rain]
   Yield Productivity                       0.37 kg[grain yield]/m3[rain] =    3.7 kg[yield]/ha per mm[rain]

 Evapotranspiration during growing season  310.8 mm[ET]
   Dry Matter Productivity                  1.27 kg[DM]/m3[ET]            =   12.7 kg[DM]/ha per mm[ET]
   Yield Productivity                       0.43 kg[grain yield]/m3[ET]   =    4.3 kg[yield]/ha per mm[ET]

 Transpiration during growing season        94.6 mm[EP]
   Dry Matter Productivity                  4.18 kg[DM]/m3[EP]            =   41.8 kg[DM]/ha per mm[EP]
   Yield Productivity                       1.41 kg[grain yield]/m3[EP]   =   14.1 kg[yield]/ha per mm[EP]

 N uptake during growing season               42 kg[N uptake]/ha
   Dry Matter Productivity                  94.1 kg[DM]/kg[N uptake]
   Yield Productivity                       31.6 kg[yield]/kg[N uptake]

--------------------------------------------------------------------------------------------------------------

                     Wheat YIELD :     1329 kg/ha    [Dry weight] 

**************************************************************************************************************

*DSSAT Cropping System Model Ver. 4.8.2.000 -release  JAN 12, 2026 12:42:40

*RUN   2        : 147 kg[N]/ha - broadcast  WHAPS048 HWOC2501    3
 MODEL          : WHAPS048 - Wheat
 EXPERIMENT     : HWOC2501 WH
 DATA PATH      : C:/DSSAT48/Wheat/
 TREATMENT  3   : 147 kg[N]/ha - broadcast  WHAPS048


 CROP           : Wheat            CULTIVAR : SU Mangold       ECOTYPE :DFAULT
 STARTING DATE  : OCT 22 2024
 PLANTING DATE  : OCT 23 2024      PLANTS/m2 :   380.0    ROW SPACING :  12.cm
 WEATHER        : LL91   2024
 SOIL           : IB00000007     TEXTURE : SL    - DEFAULT - DEEP SANDY LOAM
 SOIL INIT COND : DEPTH:210cm EXTR. H2O:229.2mm  NO3: 49.5kg/ha  NH4:  5.4kg/ha
 WATER BALANCE  : RAINFED
 IRRIGATION     : NOT IRRIGATED
 NITROGEN BAL.  : SOIL-N & N-UPTAKE SIMULATION; NO N-FIXATION
 N-FERTILIZER   :      147 kg/ha IN     3 APPLICATIONS
 RESIDUE/MANURE : INITIAL :  2000 kg/ha ;       0 kg/ha IN     0 APPLICATIONS
 ENVIRONM. OPT. : DAYL=    0.00  SRAD=    0.00  TMAX=    0.00  TMIN=    0.00
                  RAIN=    0.00  CO2 =    0.00  DEW =    0.00  WIND=    0.00
 SIMULATION OPT : WATER   :Y  NITROGEN:Y  N-FIX:N  PHOSPH :N  PESTS  :N
                  PHOTO   :C  ET      :R  INFIL:S  HYDROL :R  SOM    :G
                  CO2 420ppm  NSWIT   :1  EVAP :S  SOIL   :2  STEMP  :D
 MANAGEMENT OPT : PLANTING:R  IRRIG   :N  FERT :R  RESIDUE:N  HARVEST:M
                  WEATHER :M  TILLAGE :Y

*SUMMARY OF SOIL AND GENETIC INPUT PARAMETERS

   SOIL LOWER UPPER   SAT  EXTR  INIT   ROOT   BULK     pH    NO3    NH4    ORG
  DEPTH LIMIT LIMIT    SW    SW    SW   DIST   DENS                          C
   cm   cm3/cm3    cm3/cm3    cm3/cm3         g/cm3         ugN/g  ugN/g     %
-------------------------------------------------------------------------------
  0-  5 0.052 0.176 0.359 0.124 0.221   1.00   1.61   6.50   1.46   0.16   0.70
  5- 15 0.052 0.176 0.359 0.124 0.231   1.00   1.61   6.50   1.46   0.16   0.70
 15- 30 0.052 0.176 0.359 0.124 0.242   0.64   1.61   6.50   1.46   0.16   0.66
 30- 45 0.073 0.192 0.360 0.119 0.251   0.47   1.61   6.50   1.46   0.16   0.58
 45- 60 0.073 0.192 0.360 0.119 0.257   0.35   1.61   6.50   1.46   0.16   0.58
 60- 90 0.128 0.232 0.361 0.104 0.257   0.22   1.61   6.50   1.46   0.16   0.43
 90-120 0.143 0.243 0.359 0.100 0.255   0.12   1.62   6.50   1.46   0.16   0.26
120-150 0.138 0.243 0.360 0.105 0.251   0.07   1.62   6.50   1.46   0.16   0.12
150-180 0.138 0.244 0.361 0.106 0.246   0.04   1.62   6.50   1.46   0.16   0.04
180-210 0.138 0.244 0.361 0.106 0.243   0.02   1.62   6.50   1.46   0.16   0.01

TOT-210  24.3  47.2  75.6  22.9  52.2  <--cm   -  kg/ha-->   49.5    5.4 102525
SOIL ALBEDO    : 0.13      EVAPORATION LIMIT : 6.00         MIN. FACTOR  : 1.00
RUNOFF CURVE # :68.00      DRAINAGE RATE     : 0.50         FERT. FACTOR : 1.00

 Wheat            CULTIVAR: LL0001-SU Mangold         ECOTYPE: DFAULT


*SIMULATED CROP AND SOIL STATUS AT MAIN DEVELOPMENT STAGES

 RUN NO.     2     147 kg[N]/ha - broadcast

        CROP GROWTH     BIOMASS         LEAF   CROP N     STRESS      STRESS                                           
   DATE  AGE STAGE        kg/ha    LAI   NUM  kg/ha  %   H2O  Nitr Phos1 Phos2  RSTG                                   
 ------  --- ----------   -----  -----  ----  ---  ---  ----  ----  ----  ----  ----                                   
 22 OCT    0 Fallow           0   0.00   0.0    0  0.0  0.00  0.00  0.00  0.00     7
 23 OCT    0 Sowing           0   0.00   0.0    0  0.0  0.00  0.00  0.00  0.00     8
 25 OCT    2 Germinate        0   0.00   0.0    0  0.0  0.00  0.00  0.00  0.00     9
 28 OCT    5 Emergence       15   0.02   0.0    1  6.4  0.00  0.01  0.00  0.00     1
 28 APR  187 End Juveni    3119   4.18   0.0   93  3.0  0.41  0.00  0.00  0.00     2
 24 MAY  213 End Veg       6335   4.78   0.0  122  1.9  0.93  0.00  0.00  0.00     3
  6 JUN  226 End Ear Gr    8588   4.24   0.0  129  1.5  0.95  0.00  0.00  0.00     4
 16 JUN  236 Beg Gr Fil    9984   3.43   0.0  130  1.3  0.97  0.00  0.00  0.00     5
 20 JUL  270 Maturity     11195   0.00   0.0  131  1.2  0.70  0.03  0.00  0.00     6
 21 JUL  271 Maturity     11195   0.00   0.0  131  1.2  0.00  1.00  0.00  0.00     7
 21 JUL  271 Harvest      11195   0.00   0.0  131  1.2  0.00  0.00  0.00  0.00     7


*MAIN GROWTH AND DEVELOPMENT VARIABLES

@     VARIABLE                                         SIMULATED     MEASURED
      --------                                         ---------     --------
      Anthesis day (dap)                                     226          224
      Physiological maturity day (dap)                       271          255
      Yield at harvest maturity (kg [dm]/ha)                2394          -99
      Number at maturity (no/m2)                           12540          -99
      Unit wt at maturity (g [dm]/unit)                     19.1          -99
      Number at maturity (no/unit)                          33.0          -99
      Tops weight at maturity (kg [dm]/ha)                 11195          -99
      By-product produced (stalk) at maturity (kg[dm]/ha       0          -99
      Leaf area index, maximum                              5.31          -99
      Harvest index at maturity                            0.214          -99
      Grain N at maturity (kg/ha)                             70          -99
      Tops N at maturity (kg/ha)                             131          -99
      Stem N at maturity (kg/ha)                               0          -99
      Grain N at maturity (%)                                2.9          -99
      Tops weight at anthesis (kg [dm]/ha)                     2          -99
      Tops N at anthesis (kg/ha)                              33          -99
      Leaf number per stem at maturity                      0.00          -99
      Emergence day (dap)                                      5            6


*ENVIRONMENTAL AND STRESS FACTORS

 |-----Development Phase------|--------------------------------------Environment--------------------------------------|-----------------Stress-----------------|
                              |---------------Average--------------|-----Cumulative-----|--------Count of days--------|          (0=Min, 1=Max Stress)         |
                         Time  Temp  Temp  Temp Solar Photop                Evapo    Pot TMIN TMIN TMAX TMAX TMAX RAIN|----Water----|---Nitrogen--|-Phosphorus-|
                         Span   Max   Min  Mean   Rad  [day]    CO2   Rain  Trans     ET   <    <    >    >    >    >   Photo         Photo         Photo
                         days     C     C     C MJ/m2     hr    ppm     mm     mm    mm   0 C  2 C 30 C 32 C 34 C  0mm  synth Growth  synth Growth  synth Growth
----------------------------------------------------------------------------------------------------------------------------------------------------------------
 Emergence-End Juvenile   182   7.7  -0.1   3.8   7.1   9.96  420.5  256.3  154.0  197.7  101  130    0    0    0  128  0.344  0.401  0.001  0.002  0.000  0.000
 End Juvenil-Floral Init   26  20.4   4.9  12.7  26.6  14.85  420.5   22.0   69.4  128.2    2    5    0    0    0    4  0.891  0.928  0.000  0.000  0.000  0.000
 Floral Init-End Lf Grow   13  22.9   9.5  16.2  22.2  15.66  420.5   29.4   44.2   58.2    1    1    1    1    0    9  0.930  0.954  0.000  0.000  0.000  0.000
 End Lf Grth-Beg Grn Fil   10  25.1  10.0  17.5  28.6  15.93  420.5   17.4   25.9   59.6    0    0    2    1    1    5  0.940  0.961  0.000  0.000  0.000  0.000
 Grain Filling Phase       34  28.9  12.6  20.7  28.2  15.87  420.5   32.1   31.2  224.6    0    0   14    8    5    9  0.727  0.730  0.000  0.000  0.000  0.000
   
 Planting to Harvest      271  13.1   3.0   8.1  13.1  11.68  420.5  360.3  330.4  679.0  104  136   17   10    6  161  0.487  0.531  0.003  0.005  0.000  0.000
----------------------------------------------------------------------------------------------------------------------------------------------------------------


*Resource Productivity
 Growing season length: 271 days 

 Precipitation during growing season       360.3 mm[rain]
   Dry Matter Productivity                  3.11 kg[DM]/m3[rain]          =   31.1 kg[DM]/ha per mm[rain]
   Yield Productivity                       0.66 kg[grain yield]/m3[rain] =    6.6 kg[yield]/ha per mm[rain]

 Evapotranspiration during growing season  330.4 mm[ET]
   Dry Matter Productivity                  3.39 kg[DM]/m3[ET]            =   33.9 kg[DM]/ha per mm[ET]
   Yield Productivity                       0.72 kg[grain yield]/m3[ET]   =    7.2 kg[yield]/ha per mm[ET]

 Transpiration during growing season       200.7 mm[EP]
   Dry Matter Productivity                  5.58 kg[DM]/m3[EP]            =   55.8 kg[DM]/ha per mm[EP]
   Yield Productivity                       1.19 kg[grain yield]/m3[EP]   =   11.9 kg[yield]/ha per mm[EP]

 N applied during growing season            147. kg[N applied]/ha
   Dry Matter Productivity                  76.2 kg[DM]/kg[N applied]
   Yield Productivity                       16.3 kg[yield]/kg[N applied]

 N uptake during growing season              178 kg[N uptake]/ha
   Dry Matter Productivity                  62.9 kg[DM]/kg[N uptake]
   Yield Productivity                       13.4 kg[yield]/kg[N uptake]

--------------------------------------------------------------------------------------------------------------

                     Wheat YIELD :     2394 kg/ha    [Dry weight] 

**************************************************************************************************************

*DSSAT Cropping System Model Ver. 4.8.2.000 -release  JAN 12, 2026 12:42:40

*RUN   3        : 180 kg[N]/ha - broadcast  WHAPS048 HWOC2501    7
 MODEL          : WHAPS048 - Wheat
 EXPERIMENT     : HWOC2501 WH
 DATA PATH      : C:/DSSAT48/Wheat/
 TREATMENT  7   : 180 kg[N]/ha - broadcast  WHAPS048


 CROP           : Wheat            CULTIVAR : SU Mangold       ECOTYPE :DFAULT
 STARTING DATE  : OCT 22 2024
 PLANTING DATE  : OCT 23 2024      PLANTS/m2 :   380.0    ROW SPACING :  12.cm
 WEATHER        : LL91   2024
 SOIL           : IB00000007     TEXTURE : SL    - DEFAULT - DEEP SANDY LOAM
 SOIL INIT COND : DEPTH:210cm EXTR. H2O:229.2mm  NO3: 49.5kg/ha  NH4:  5.4kg/ha
 WATER BALANCE  : RAINFED
 IRRIGATION     : NOT IRRIGATED
 NITROGEN BAL.  : SOIL-N & N-UPTAKE SIMULATION; NO N-FIXATION
 N-FERTILIZER   :      180 kg/ha IN     3 APPLICATIONS
 RESIDUE/MANURE : INITIAL :  2000 kg/ha ;       0 kg/ha IN     0 APPLICATIONS
 ENVIRONM. OPT. : DAYL=    0.00  SRAD=    0.00  TMAX=    0.00  TMIN=    0.00
                  RAIN=    0.00  CO2 =    0.00  DEW =    0.00  WIND=    0.00
 SIMULATION OPT : WATER   :Y  NITROGEN:Y  N-FIX:N  PHOSPH :N  PESTS  :N
                  PHOTO   :C  ET      :R  INFIL:S  HYDROL :R  SOM    :G
                  CO2 420ppm  NSWIT   :1  EVAP :S  SOIL   :2  STEMP  :D
 MANAGEMENT OPT : PLANTING:R  IRRIG   :N  FERT :R  RESIDUE:N  HARVEST:M
                  WEATHER :M  TILLAGE :Y

*SUMMARY OF SOIL AND GENETIC INPUT PARAMETERS

   SOIL LOWER UPPER   SAT  EXTR  INIT   ROOT   BULK     pH    NO3    NH4    ORG
  DEPTH LIMIT LIMIT    SW    SW    SW   DIST   DENS                          C
   cm   cm3/cm3    cm3/cm3    cm3/cm3         g/cm3         ugN/g  ugN/g     %
-------------------------------------------------------------------------------
  0-  5 0.052 0.176 0.359 0.124 0.221   1.00   1.61   6.50   1.46   0.16   0.70
  5- 15 0.052 0.176 0.359 0.124 0.231   1.00   1.61   6.50   1.46   0.16   0.70
 15- 30 0.052 0.176 0.359 0.124 0.242   0.64   1.61   6.50   1.46   0.16   0.66
 30- 45 0.073 0.192 0.360 0.119 0.251   0.47   1.61   6.50   1.46   0.16   0.58
 45- 60 0.073 0.192 0.360 0.119 0.257   0.35   1.61   6.50   1.46   0.16   0.58
 60- 90 0.128 0.232 0.361 0.104 0.257   0.22   1.61   6.50   1.46   0.16   0.43
 90-120 0.143 0.243 0.359 0.100 0.255   0.12   1.62   6.50   1.46   0.16   0.26
120-150 0.138 0.243 0.360 0.105 0.251   0.07   1.62   6.50   1.46   0.16   0.12
150-180 0.138 0.244 0.361 0.106 0.246   0.04   1.62   6.50   1.46   0.16   0.04
180-210 0.138 0.244 0.361 0.106 0.243   0.02   1.62   6.50   1.46   0.16   0.01

TOT-210  24.3  47.2  75.6  22.9  52.2  <--cm   -  kg/ha-->   49.5    5.4 102525
SOIL ALBEDO    : 0.13      EVAPORATION LIMIT : 6.00         MIN. FACTOR  : 1.00
RUNOFF CURVE # :68.00      DRAINAGE RATE     : 0.50         FERT. FACTOR : 1.00

 Wheat            CULTIVAR: LL0001-SU Mangold         ECOTYPE: DFAULT


*SIMULATED CROP AND SOIL STATUS AT MAIN DEVELOPMENT STAGES

 RUN NO.     3     180 kg[N]/ha - broadcast

        CROP GROWTH     BIOMASS         LEAF   CROP N     STRESS      STRESS                                           
   DATE  AGE STAGE        kg/ha    LAI   NUM  kg/ha  %   H2O  Nitr Phos1 Phos2  RSTG                                   
 ------  --- ----------   -----  -----  ----  ---  ---  ----  ----  ----  ----  ----                                   
 22 OCT    0 Fallow           0   0.00   0.0    0  0.0  0.00  0.00  0.00  0.00     7
 23 OCT    0 Sowing           0   0.00   0.0    0  0.0  0.00  0.00  0.00  0.00     8
 25 OCT    2 Germinate        0   0.00   0.0    0  0.0  0.00  0.00  0.00  0.00     9
 28 OCT    5 Emergence       15   0.02   0.0    1  6.4  0.00  0.01  0.00  0.00     1
 28 APR  187 End Juveni    3378   4.53   0.0  109  3.2  0.41  0.00  0.00  0.00     2
 24 MAY  213 End Veg       6878   5.22   0.0  135  2.0  0.94  0.00  0.00  0.00     3
  6 JUN  226 End Ear Gr    8958   4.68   0.0  149  1.7  0.95  0.00  0.00  0.00     4
 16 JUN  236 Beg Gr Fil   10329   3.79   0.0  150  1.5  0.97  0.00  0.00  0.00     5
 20 JUL  270 Maturity     11756   0.00   0.0  150  1.3  0.70  0.03  0.00  0.00     6
 21 JUL  271 Maturity     11756   0.00   0.0  150  1.3  0.00  1.00  0.00  0.00     7
 21 JUL  271 Harvest      11756   0.00   0.0  150  1.3  0.00  0.00  0.00  0.00     7


*MAIN GROWTH AND DEVELOPMENT VARIABLES

@     VARIABLE                                         SIMULATED     MEASURED
      --------                                         ---------     --------
      Anthesis day (dap)                                     226          224
      Physiological maturity day (dap)                       271          255
      Yield at harvest maturity (kg [dm]/ha)                2574          -99
      Number at maturity (no/m2)                           12269          -99
      Unit wt at maturity (g [dm]/unit)                     21.0          -99
      Number at maturity (no/unit)                          32.3          -99
      Tops weight at maturity (kg [dm]/ha)                 11756          -99
      By-product produced (stalk) at maturity (kg[dm]/ha       0          -99
      Leaf area index, maximum                              5.87          -99
      Harvest index at maturity                            0.219          -99
      Grain N at maturity (kg/ha)                             75          -99
      Tops N at maturity (kg/ha)                             150          -99
      Stem N at maturity (kg/ha)                               0          -99
      Grain N at maturity (%)                                2.9          -99
      Tops weight at anthesis (kg [dm]/ha)                     2          -99
      Tops N at anthesis (kg/ha)                              33          -99
      Leaf number per stem at maturity                      0.00          -99
      Emergence day (dap)                                      5            6


*ENVIRONMENTAL AND STRESS FACTORS

 |-----Development Phase------|--------------------------------------Environment--------------------------------------|-----------------Stress-----------------|
                              |---------------Average--------------|-----Cumulative-----|--------Count of days--------|          (0=Min, 1=Max Stress)         |
                         Time  Temp  Temp  Temp Solar Photop                Evapo    Pot TMIN TMIN TMAX TMAX TMAX RAIN|----Water----|---Nitrogen--|-Phosphorus-|
                         Span   Max   Min  Mean   Rad  [day]    CO2   Rain  Trans     ET   <    <    >    >    >    >   Photo         Photo         Photo
                         days     C     C     C MJ/m2     hr    ppm     mm     mm    mm   0 C  2 C 30 C 32 C 34 C  0mm  synth Growth  synth Growth  synth Growth
----------------------------------------------------------------------------------------------------------------------------------------------------------------
 Emergence-End Juvenile   182   7.7  -0.1   3.8   7.1   9.96  420.5  256.3  154.7  197.6  101  130    0    0    0  128  0.345  0.402  0.001  0.002  0.000  0.000
 End Juvenil-Floral Init   26  20.4   4.9  12.7  26.6  14.85  420.5   22.0   78.9  128.0    2    5    0    0    0    4  0.903  0.936  0.000  0.000  0.000  0.000
 Floral Init-End Lf Grow   13  22.9   9.5  16.2  22.2  15.66  420.5   29.4   37.0   58.1    1    1    1    1    0    9  0.929  0.953  0.000  0.000  0.000  0.000
 End Lf Grth-Beg Grn Fil   10  25.1  10.0  17.5  28.6  15.93  420.5   17.4   20.2   59.5    0    0    2    1    1    5  0.943  0.963  0.000  0.000  0.000  0.000
 Grain Filling Phase       34  28.9  12.6  20.7  28.2  15.87  420.5   32.1   31.1  224.0    0    0   14    8    5    9  0.729  0.732  0.000  0.000  0.000  0.000
   
 Planting to Harvest      271  13.1   3.0   8.1  13.1  11.68  420.5  360.3  327.7  677.9  104  136   17   10    6  161  0.489  0.533  0.003  0.005  0.000  0.000
----------------------------------------------------------------------------------------------------------------------------------------------------------------


*Resource Productivity
 Growing season length: 271 days 

 Precipitation during growing season       360.3 mm[rain]
   Dry Matter Productivity                  3.26 kg[DM]/m3[rain]          =   32.6 kg[DM]/ha per mm[rain]
   Yield Productivity                       0.71 kg[grain yield]/m3[rain] =    7.1 kg[yield]/ha per mm[rain]

 Evapotranspiration during growing season  327.7 mm[ET]
   Dry Matter Productivity                  3.59 kg[DM]/m3[ET]            =   35.9 kg[DM]/ha per mm[ET]
   Yield Productivity                       0.79 kg[grain yield]/m3[ET]   =    7.9 kg[yield]/ha per mm[ET]

 Transpiration during growing season       201.2 mm[EP]
   Dry Matter Productivity                  5.84 kg[DM]/m3[EP]            =   58.4 kg[DM]/ha per mm[EP]
   Yield Productivity                       1.28 kg[grain yield]/m3[EP]   =   12.8 kg[yield]/ha per mm[EP]

 N applied during growing season            180. kg[N applied]/ha
   Dry Matter Productivity                  65.3 kg[DM]/kg[N applied]
   Yield Productivity                       14.3 kg[yield]/kg[N applied]

 N uptake during growing season              210 kg[N uptake]/ha
   Dry Matter Productivity                  56.0 kg[DM]/kg[N uptake]
   Yield Productivity                       12.3 kg[yield]/kg[N uptake]

--------------------------------------------------------------------------------------------------------------

                     Wheat YIELD :     2574 kg/ha    [Dry weight] 

**************************************************************************************************************
