*GROWTH ASPECTS OUTPUT FILE

*DSSAT Cropping System Model Ver. 4.8.2.000 -release  JAN 19, 2026 13:40:14

*RUN   1        : No N                      WHAPS048 HWOC2501    1
 MODEL          : WHAPS048 - Wheat
 EXPERIMENT     : HWOC2501 WH
 DATA PATH      : C:/DSSAT48/Wheat/
 TREATMENT  1   : No N                      WHAPS048
  
!                                                                                                                                                                                                                                             Root Dens. (cm/cm3) by soil depth (cm):
!                                                                                                                                                                                                                                             0-5    5-10   10-20   20-30   30-40   40-50   50-60   60-70   70-90  90-210
@YEAR DOY   DAS   DAP    DCCD  GSTD   LAID   LWAD   SWAD   GWAD   RWAD   VWAD   CWAD   G#AD   G#AD2  GWGD   HIAD   SHAD   WSPD   WSGD   SLFT   NSTD   EWSD  PST1A  PST2A   KSTD   LN%D   TPSM   HIPD   PWDD   PWTD     SLAD   CHTD   CWID   RDPD    RL1D    RL2D    RL3D    RL4D    RL5D    RL6D    RL7D    RL8D    RL9D   RL10D   CDAD   LDAD   SDAD   SNW0C   SNW1C    DTTD   SUMDTT
 2024 297     2     0   0.000     8  0.000      0      0      0      0      0      0      0      0    0.0  0.000      0   0.00   0.00   0.00   0.00   0.00   0.00   0.00   1.00   0.00    0.0   0.00      0      0      0.0   0.00   0.00 0.0030   0.000   0.000   0.000   0.000   0.000   0.000   0.000   0.000   0.000   0.000      0      0      0       0       0   9.450    0.000
 2024 298     3     1   0.000     8  0.000      0      0      0      0      0      0      0      0    0.0  0.000      0   0.00   0.00   0.00   0.00   0.00   0.00   0.00   1.00   0.00    0.0   0.00      0      0      0.0   0.00   0.00 0.0030   0.000   0.000   0.000   0.000   0.000   0.000   0.000   0.000   0.000   0.000      0      0      0       0       0  10.500   10.500
 2024 299     4     2   2.659     9  0.000      0      0      0      0      0      0      0      0    0.0  0.000      0   0.00   0.00   0.00   0.00   0.00   0.00   0.00   1.00   0.00    0.0   0.00      0      0      0.0   0.00   0.00 0.0030   0.000   0.000   0.000   0.000   0.000   0.000   0.000   0.000   0.000   0.000      0      0      0       0       0  11.450   11.450
 2024 300     5     3   5.156     9  0.000      0      0      0      0      0      0      0      0    0.0  0.000      0   0.00   0.00   0.00   0.00   0.00   0.00   0.00   1.00   0.00    0.0   0.00      0      0      0.0   0.00   0.00 0.0144   0.000   0.000   0.000   0.000   0.000   0.000   0.000   0.000   0.000   0.000      0      0      0       0       0  10.750   22.200
 2024 301     6     4   7.850     9  0.000      0      0      0      0      0      0      0      0    0.0  0.000      0   0.00   0.00   0.00   0.00   0.00   0.00   0.00   1.00   0.00    0.0   0.00      0      0      0.0   0.00   0.00 0.0252   0.000   0.000   0.000   0.000   0.000   0.000   0.000   0.000   0.000   0.000      0      0      0       0       0  11.600   33.800
 2024 302     7     5  10.170     1  0.017     14      0      0     23     15     15      0      0    0.0  0.000      1   0.00   0.00   1.00   0.00   0.00   0.00   0.00   1.00   3.98  380.0   0.00      0      1    280.3   0.00   0.00 0.0646   0.037   0.008   0.000   0.000   0.000   0.000   0.000   0.000   0.000   0.000      0      0      0       0       0  12.650    3.390
 2024 303     8     6  10.170     1  0.019     22      0      0     23     24     24      0      0    0.0  0.000      1   0.00   0.00   1.00   0.00   0.00   0.00   0.00   1.00   3.96  380.0   0.00      0      1    280.3   0.00   0.00 0.0939   0.036   0.008   0.000   0.000   0.000   0.000   0.000   0.000   0.000   0.000      0      0      0       0       0  13.300    3.390
 2024 304     9     7  10.170     1  0.020     31      0      0     24     34     34      0      0    0.0  0.000      2   0.00   0.00   1.00   0.00   0.00   0.00   0.00   1.00   4.50  380.0   0.00      0      2    280.3   0.00   0.00 0.1194   0.036   0.008   0.000   0.000   0.000   0.000   0.000   0.000   0.000   0.000      0      0      0       0       0  11.600    3.390
 2024 305    10     8  10.170     1  0.021     41      0      0     24     43     43      0      0    0.0  0.000      2   0.00   0.00   1.00   0.00   0.00   0.00   0.00   1.00   4.91  380.0   0.00      0      2    280.3   0.00   0.00 0.1389   0.036   0.008   0.000   0.000   0.000   0.000   0.000   0.000   0.000   0.000      0      0      0       0       0  10.100    3.390
 2024 306    11     9  10.170     1  0.022     47      0      0     24     49     49      0      0    0.0  0.000      3   0.00   0.00   1.00   0.00   0.00   0.00   0.00   1.00   5.54  380.0   0.00      0      3    280.3   0.00   0.00 0.1532   0.035   0.008   0.000   0.000   0.000   0.000   0.000   0.000   0.000   0.000      0      0      0       0       0   7.350    3.390
 2024 307    12    10  10.172     1  0.024     53      0      0     24     56     56      0      0    0.0  0.000      3   0.00   0.00   1.00   0.00   0.00   0.00   0.00   1.00   5.56  380.0   0.00      0      3    280.3   0.00   0.00 0.1677   0.035   0.008   0.000   0.000   0.000   0.000   0.000   0.000   0.000   0.000      0      0      0       0       0   7.500    3.443
 2024 308    13    11  10.181     1  0.026     58      0      0     24     62     62      0      0    0.0  0.000      4   0.00   0.00   1.00   0.00   0.00   0.00   0.00   1.00   5.79  380.0   0.00      0      4    280.4   0.00   0.00 0.1811   0.035   0.008   0.000   0.000   0.000   0.000   0.000   0.000   0.000   0.000      0      0      0       0       0   6.950    3.624
 2024 309    14    12  10.196     1  0.028     59      0      0     25     64     64      0      0    0.0  0.000      5   0.00   0.00   1.00   0.00   0.00   0.00   0.00   1.00   6.25  380.0   0.00      0      5    280.4   0.00   0.00 0.1931   0.034   0.008   0.000   0.000   0.000   0.000   0.000   0.000   0.000   0.000      0      0      0       0       0   6.200    3.912
 2024 310    15    13  10.209     1  0.029     59      0      0     25     65     65      0      0    0.0  0.000      5   0.00   0.00   1.00   0.00   0.00   0.00   0.00   1.00   6.30  380.0   0.00      0      5    280.4   0.00   0.00 0.2002   0.034   0.008   0.000   0.000   0.000   0.000   0.000   0.000   0.000   0.000      0      0      0       0       0   3.700    4.174
 2024 311    16    14  10.241     1  0.030     60      0      0     25     66     66      0      0    0.0  0.000      5   0.00   0.00   1.00   0.00   0.00   0.00   0.00   1.00   6.30  380.0   0.00      0      5    280.5   0.00   0.00 0.2141   0.034   0.008   0.000   0.000   0.000   0.000   0.000   0.000   0.000   0.000      0      0      0       0       0   7.150    4.815
 2024 312    17    15  10.272     1  0.031     60      0      0     25     66     66      0      0    0.0  0.000      6   0.00   0.00   1.00   0.00   0.00   0.00   0.00   1.00   6.29  380.0   0.00      0      6    280.5   0.00   0.00 0.2221   0.033   0.008   0.000   0.000   0.000   0.000   0.000   0.000   0.000   0.000      0      0      0       0       0   5.700    5.447
 2024 313    18    16  10.303     1  0.032     60      0      0     25     67     67      0      0    0.0  0.000      6   0.00   0.00   1.00   0.00   0.00   0.00   0.00   1.00   6.29  380.0   0.00      0      6    280.6   0.00   0.00 0.2286   0.033   0.008   0.000   0.000   0.000   0.000   0.000   0.000   0.000   0.000      0      0      0       0       0   4.650    6.069
 2024 314    19    17  10.333     1  0.034     61      0      0     25     68     68      0      0    0.0  0.000      7   0.00   0.00   1.00   0.00   0.00   0.00   0.00   1.00   6.28  380.0   0.00      0      7    280.7   0.00   0.00 0.2339   0.033   0.008   0.000   0.000   0.000   0.000   0.000   0.000   0.000   0.000      0      0      0       0       0   3.750    6.662
 2024 315    20    18  10.373     1  0.035     61      0      0     25     69     69      0      0    0.0  0.000      7   0.00   0.00   1.00   0.00   0.00   0.00   0.00   1.00   6.28  380.0   0.00      0      7    280.7   0.00   0.00 0.2400   0.033   0.007   0.000   0.000   0.000   0.000   0.000   0.000   0.000   0.000      0      0      0       0       0   4.350    7.450
 2024 316    21    19  10.409     1  0.035     61      0      0     25     69     69      0      0    0.0  0.000      7   0.00   0.00   1.00   0.00   0.00   0.00   0.00   1.00   6.29  380.0   0.00      0      7    280.8   0.00   0.00 0.2450   0.032   0.007   0.000   0.000   0.000   0.000   0.000   0.000   0.000   0.000      0      0      0       0       0   3.560    8.183
 2024 317    22    20  10.448     1  0.036     62      0      0     25     70     70      0      0    0.0  0.000      8   0.00   0.00   1.00   0.00   0.00   0.00   0.00   1.00   6.26  380.0   0.00      0      8    280.9   0.00   0.00 0.2498   0.032   0.007   0.000   0.000   0.000   0.000   0.000   0.000   0.000   0.000      0      0      0       0       0   3.428    8.967
 2024 318    23    21  10.474     1  0.037     62      0      0     25     70     70      0      0    0.0  0.000      8   0.00   0.00   1.00   0.00   0.00   0.00   0.00   1.00   6.28  380.0   0.00      0      8    280.9   0.00   0.00 0.2527   0.032   0.007   0.000   0.000   0.000   0.000   0.000   0.000   0.000   0.000      0      0      0       0       0   2.076    9.483
 2024 319    24    22  10.513     1  0.038     62      0      0     25     71     71      0      0    0.0  0.000      8   0.00   0.00   1.00   0.00   0.00   0.00   0.00   1.00   6.27  380.0   0.00      0      8    281.0   0.00   0.00 0.2566   0.031   0.007   0.000   0.000   0.000   0.000   0.000   0.000   0.000   0.000      0      0      0       0       0   2.800   10.252
 2024 320    25    23  10.576     1  0.039     63      0      0     25     72     72      0      0    0.0  0.000      9   0.00   0.00   1.00   0.00   0.00   0.00   0.00   1.00   6.24  380.0   0.00      0      9    281.1   0.00   0.00 0.2626   0.031   0.007   0.000   0.000   0.000   0.000   0.000   0.000   0.000   0.000      0      0      0       0       0   4.250   11.520
 2024 321    26    24  10.638     1  0.041     64      0      0     26     73     73      0      0    0.0  0.000      9   0.00   0.00   1.00   0.00   0.00   0.00   0.00   1.00   6.21  380.0   0.00      0      9    281.2   0.00   0.00 0.2681   0.031   0.007   0.000   0.000   0.000   0.000   0.000   0.000   0.000   0.000      0      0      0       0       0   3.906   12.762
 2024 322    27    25  10.703     1  0.042     64      0      0     26     74     74      0      0    0.0  0.000     10   0.00   0.00   1.00   0.00   0.00   0.00   0.00   1.00   6.24  380.0   0.00      0     10    281.4   0.00   0.00 0.2734   0.030   0.007   0.000   0.000   0.000   0.000   0.000   0.000   0.000   0.000      0      0      0       0       0   3.819   14.069
 2024 323    28    26  10.779     1  0.043     64      0      0     26     75     75      0      0    0.0  0.000     10   0.00   0.00   1.00   0.00   0.00   0.00   0.00   1.00   6.23  380.0   0.00      0     10    281.5   0.00   0.00 0.2793   0.030   0.007   0.000   0.000   0.000   0.000   0.000   0.000   0.000   0.000      0      0      0       0       0   4.150   15.588
 2024 324    29    27  10.915     1  0.044     65      0      0     26     76     76      0      0    0.0  0.000     10   0.00   0.00   1.00   0.00   0.00   0.00   0.00   1.00   6.20  380.0   0.00      0     10    281.7   0.00   0.00 0.2891   0.030   0.007   0.000   0.000   0.000   0.000   0.000   0.000   0.000   0.000      0      0      0       0       0   7.050   18.302
 2024 325    30    28  10.986     1  0.046     65      0      0     26     76     76      0      0    0.0  0.000     11   0.00   0.00   1.00   0.00   0.00   0.00   0.00   1.00   6.19  380.0   0.00      0     11    281.9   0.00   0.00 0.2940   0.030   0.007   0.000   0.000   0.000   0.000   0.000   0.000   0.000   0.000      0      0      0       0       0   3.478   19.720
 2024 326    31    29  11.004     1  0.046     65      0      0     26     76     76      0      0    0.0  0.000     11   0.00   0.00   1.00   0.00   0.00   0.00   0.00   1.00   6.23  380.0   0.00      0     11    281.9   0.00   0.00 0.2952   0.029   0.007   0.000   0.000   0.000   0.000   0.000   0.000   0.000   0.000      0      0      0       0       0   0.865   20.087
 2024 327    32    30  11.009     1  0.046     65      0      0     26     76     76      0      0    0.0  0.000     11   0.00   0.00   1.00   0.00   0.00   0.00   0.00   1.00   6.23  380.0   0.00      0     11    281.9   0.00   0.00 0.2956   0.029   0.007   0.000   0.000   0.000   0.000   0.000   0.000   0.000   0.000      0      0      0       0       0   0.222   20.184
 2024 328    33    31  11.063     1  0.047     66      0      0     26     77     77      0      0    0.0  0.000     11   0.00   0.00   1.00   0.00   0.00   0.00   0.00   1.00   6.19  380.0   0.00      0     11    282.0   0.00   0.00 0.2988   0.029   0.007   0.000   0.000   0.000   0.000   0.000   0.000   0.000   0.000      0      0      0       0       0   2.328   21.253
 2024 329    34    32  11.211     1  0.049     67      0      0     26     79     79      0      0    0.0  0.000     12   0.00   0.00   1.00   0.00   0.00   0.00   0.00   1.00   6.13  380.0   0.00      0     12    282.3   0.00   0.00 0.3075   0.028   0.007   0.000   0.000   0.000   0.000   0.000   0.000   0.000   0.000      0      0      0       0       0   6.200   24.226
 2024 330    35    33  11.379     1  0.053     68      0      0     27     81     81      0      0    0.0  0.000     13   0.00   0.00   1.00   0.00   0.00   0.00   0.00   1.00   6.08  380.0   0.00      0     13    282.6   0.00   0.00 0.3155   0.028   0.007   0.000   0.000   0.000   0.000   0.000   0.000   0.000   0.000      0      0      0       0       0   6.900   27.583
 2024 331    36    34  11.534     1  0.055     69      0      0     27     83     83      0      0    0.0  0.000     14   0.00   0.00   1.00   0.00   0.00   0.00   0.00   1.00   6.09  380.0   0.00      0     14    282.8   0.00   0.00 0.3229   0.028   0.007   0.000   0.000   0.000   0.000   0.000   0.000   0.000   0.000      0      0      0       0       0   6.400   30.678
 2024 332    37    35  11.673     1  0.058     70      0      0     28     85     85      0      0    0.0  0.000     15   0.00   0.00   1.00   0.00   0.00   0.00   0.00   1.00   6.05  380.0   0.00      0     15    283.1   0.00   0.00 0.3297   0.028   0.007   0.000   0.000   0.000   0.000   0.000   0.000   0.000   0.000      0      0      0       0       0   5.800   33.464
 2024 333    38    36  11.794     1  0.060     70      0      0     28     87     87      0      0    0.0  0.000     16   0.00   0.00   1.00   0.00   0.00   0.00   0.00   1.00   6.06  380.0   0.00      0     16    283.3   0.00   0.00 0.3355   0.027   0.007   0.000   0.000   0.000   0.000   0.000   0.000   0.000   0.000      0      0      0       0       0   5.050   35.876
 2024 334    39    37  11.861     1  0.062     71      0      0     29     88     88      0      0    0.0  0.000     17   0.00   0.00   1.00   0.00   0.00   0.00   0.00   1.00   6.08  380.0   0.00      0     17    283.4   0.00   0.00 0.3388   0.027   0.007   0.000   0.000   0.000   0.000   0.000   0.000   0.000   0.000      0      0      0       0       0   2.834   37.222
 2024 335    40    38  11.920     1  0.064     72      0      0     30     89     89      0      0    0.0  0.000     17   0.00   0.00   1.00   0.00   0.00   0.00   0.00   1.00   6.06  380.0   0.00      0     17    283.5   0.00   0.00 0.3417   0.027   0.006   0.000   0.000   0.000   0.000   0.000   0.000   0.000   0.000      0      0      0       0       0   2.479   38.393
 2024 336    41    39  11.928     1  0.064     72      0      0     29     89     89      0      0    0.0  0.000     17   0.00   0.00   1.00   0.00   0.00   0.00   0.00   1.00   6.12  380.0   0.00      0     17    283.5   0.00   0.00 0.3421   0.027   0.006   0.000   0.000   0.000   0.000   0.000   0.000   0.000   0.000      0      0      0       0       0   0.358   38.561
 2024 337    42    40  11.989     1  0.065     72      0      0     29     90     90      0      0    0.0  0.000     18   0.00   0.00   1.00   0.00   0.00   0.00   0.00   1.00   6.08  380.0   0.00      0     18    283.6   0.00   0.00 0.3451   0.026   0.006   0.000   0.000   0.000   0.000   0.000   0.000   0.000   0.000      0      0      0       0       0   2.605   39.778
 2024 338    43    41  12.073     1  0.066     73      0      0     30     91     91      0      0    0.0  0.000     18   0.00   0.00   1.00   0.01   0.00   0.00   0.00   1.00   6.05  380.0   0.00      0     18    283.7   0.00   0.00 0.3493   0.026   0.006   0.000   0.000   0.000   0.000   0.000   0.000   0.000   0.000      0      0      0       0       0   3.600   41.451
 2024 339    44    42  12.114     1  0.067     73      0      0     30     91     91      0      0    0.0  0.000     18   0.00   0.00   1.00   0.02   0.00   0.00   0.00   1.00   6.07  380.0   0.00      0     18    283.8   0.00   0.00 0.3514   0.026   0.006   0.000   0.000   0.000   0.000   0.000   0.000   0.000   0.000      0      0      0       0       0   1.805   42.285
 2024 340    45    43  12.146     1  0.067     73      0      0     29     91     91      0      0    0.0  0.000     18   0.00   0.00   1.00   0.01   0.00   0.00   0.00   1.00   6.09  380.0   0.00      0     18    283.9   0.00   0.00 0.3530   0.026   0.006   0.000   0.000   0.000   0.000   0.000   0.000   0.000   0.000      0      0      0       0       0   1.383   42.922
 2024 341    46    44  12.245     1  0.068     73      0      0     30     92     92      0      0    0.0  0.000     19   0.00   0.00   1.00   0.00   0.00   0.00   0.00   1.00   6.05  380.0   0.00      0     19    284.0   0.00   0.00 0.3580   0.025   0.006   0.000   0.000   0.000   0.000   0.000   0.000   0.000   0.000      0      0      0       0       0   4.300   44.893
 2024 342    47    45  12.304     1  0.069     73      0      0     30     93     93      0      0    0.0  0.000     19   0.00   0.00   1.00   0.01   0.00   0.00   0.00   1.00   6.04  380.0   0.00      0     19    284.1   0.00   0.00 0.3610   0.025   0.006   0.000   0.000   0.000   0.000   0.000   0.000   0.000   0.000      0      0      0       0       0   2.600   46.080
 2024 343    48    46  12.370     1  0.071     74      0      0     30     94     94      0      0    0.0  0.000     20   0.00   0.00   1.00   0.01   0.00   0.00   0.00   1.00   6.02  380.0   0.00      0     20    284.2   0.00   0.00 0.3644   0.025   0.006   0.000   0.000   0.000   0.000   0.000   0.000   0.000   0.000      0      0      0       0       0   2.907   47.402
 2024 344    49    47  12.416     1  0.071     74      0      0     30     94     94      0      0    0.0  0.000     20   0.00   0.00   1.00   0.02   0.00   0.00   0.00   1.00   6.03  380.0   0.00      0     20    284.3   0.00   0.00 0.3667   0.025   0.006   0.000   0.000   0.000   0.000   0.000   0.000   0.000   0.000      0      0      0       0       0   2.009   48.312
 2024 345    50    48  12.449     1  0.071     74      0      0     29     95     95      0      0    0.0  0.000     20   0.00   0.00   1.00   0.01   0.00   0.00   0.00   1.00   6.04  380.0   0.00      0     20    284.3   0.00   0.00 0.3684   0.024   0.006   0.000   0.000   0.000   0.000   0.000   0.000   0.000   0.000      0      0      0       0       0   1.485   48.982
 2024 346    51    49  12.482     1  0.072     74      0      0     29     95     95      0      0    0.0  0.000     20   0.00   0.00   1.00   0.00   0.00   0.00   0.00   1.00   6.04  380.0   0.00      0     20    284.4   0.00   0.00 0.3701   0.024   0.006   0.000   0.000   0.000   0.000   0.000   0.000   0.000   0.000      0      0      0       0       0   1.474   49.646
 2024 347    52    50  12.504     1  0.072     74      0      0     29     95     95      0      0    0.0  0.000     20   0.00   0.00   1.00   0.00   0.00   0.00   0.00   1.00   6.04  380.0   0.00      0     20    284.4   0.00   0.00 0.3712   0.024   0.006   0.000   0.000   0.000   0.000   0.000   0.000   0.000   0.000      0      0      0       0       0   0.970   50.081
 2024 348    53    51  12.515     1  0.072     74      0      0     29     95     95      0      0    0.0  0.000     20   0.00   0.00   1.00   0.00   0.00   0.00   0.00   1.00   6.04  380.0   0.00      0     20    284.4   0.00   0.00 0.3718   0.024   0.006   0.000   0.000   0.000   0.000   0.000   0.000   0.000   0.000      0      0      0       0       0   0.474   50.293
 2024 349    54    52  12.541     1  0.072     74      0      0     28     95     95      0      0    0.0  0.000     20   0.00   0.00   1.00   0.00   0.00   0.00   0.00   1.00   6.04  380.0   0.00      0     20    284.5   0.00   0.00 0.3732   0.024   0.006   0.000   0.000   0.000   0.000   0.000   0.000   0.000   0.000      0      0      0       0       0   1.184   50.822
 2024 350    55    53  12.581     1  0.072     75      0      0     28     95     95      0      0    0.0  0.000     20   0.00   0.00   1.00   0.00   0.00   0.00   0.00   1.00   6.02  380.0   0.00      0     20    284.5   0.00   0.00 0.3752   0.023   0.006   0.000   0.000   0.000   0.000   0.000   0.000   0.000   0.000      0      0      0       0       0   1.767   51.610
 2024 351    56    54  12.672     1  0.074     75      0      0     28     96     96      0      0    0.0  0.000     21   0.00   0.00   1.00   0.00   0.00   0.00   0.00   1.00   5.98  380.0   0.00      0     21    284.7   0.00   0.00 0.3800   0.023   0.006   0.000   0.000   0.000   0.000   0.000   0.000   0.000   0.000      0      0      0       0       0   4.100   53.435
 2024 352    57    55  12.768     1  0.075     76      0      0     29     97     97      0      0    0.0  0.000     21   0.00   0.00   1.00   0.01   0.00   0.00   0.00   1.00   5.96  380.0   0.00      0     21    284.8   0.00   0.00 0.3850   0.023   0.006   0.000   0.000   0.000   0.000   0.000   0.000   0.000   0.000      0      0      0       0       0   4.350   55.368
 2024 353    58    56  12.877     1  0.078     77      0      0     29     99     99      0      0    0.0  0.000     22   0.00   0.00   1.00   0.02   0.00   0.00   0.00   1.00   5.92  380.0   0.00      0     22    285.0   0.00   0.00 0.3907   0.023   0.006   0.000   0.000   0.000   0.000   0.000   0.000   0.000   0.000      0      0      0       0       0   4.900   57.543
 2024 354    59    57  13.020     1  0.080     77      0      0     29    101    101      0      0    0.0  0.000     23   0.00   0.00   1.00   0.03   0.00   0.00   0.00   1.00   5.88  380.0   0.00      0     23    285.2   0.00   0.00 0.3982   0.022   0.006   0.001   0.000   0.000   0.000   0.000   0.000   0.000   0.000      0      0      0       0       0   6.450   60.403
 2024 355    60    58  13.057     1  0.080     77      0      0     29    101    101      0      0    0.0  0.000     23   0.00   0.00   1.00   0.04   0.00   0.00   0.00   1.00   5.89  380.0   0.00      0     23    285.3   0.00   0.00 0.4001   0.022   0.006   0.001   0.000   0.000   0.000   0.000   0.000   0.000   0.000      0      0      0       0       0   1.655   61.137
 2024 356    61    59  13.105     1  0.082     78      0      0     30    102    102      0      0    0.0  0.000     24   0.00   0.00   1.00   0.04   0.00   0.00   0.00   1.00   5.87  380.0   0.00      0     24    285.3   0.00   0.00 0.4022   0.022   0.005   0.001   0.000   0.000   0.000   0.000   0.000   0.000   0.000      0      0      0       0       0   2.175   62.101
 2024 357    62    60  13.180     1  0.083     78      0      0     30    102    102      0      0    0.0  0.000     24   0.00   0.00   1.00   0.04   0.00   0.00   0.00   1.00   5.86  380.0   0.00      0     24    285.4   0.00   0.00 0.4054   0.022   0.005   0.001   0.000   0.000   0.000   0.000   0.000   0.000   0.000      0      0      0       0       0   3.388   63.603
 2024 358    63    61  13.212     1  0.083     78      0      0     29    103    103      0      0    0.0  0.000     24   0.00   0.00   1.00   0.04   0.00   0.00   0.00   1.00   5.87  380.0   0.00      0     24    285.5   0.00   0.00 0.4067   0.022   0.005   0.001   0.000   0.000   0.000   0.000   0.000   0.000   0.000      0      0      0       0       0   1.456   64.248
 2024 359    64    62  13.261     1  0.084     79      0      0     30    104    104      0      0    0.0  0.000     24   0.00   0.00   1.00   0.04   0.00   0.00   0.00   1.00   5.84  380.0   0.00      0     24    285.6   0.00   0.00 0.4088   0.021   0.005   0.001   0.000   0.000   0.000   0.000   0.000   0.000   0.000      0      0      0       0       0   2.199   65.224
 2024 360    65    63  13.304     1  0.085     79      0      0     30    104    104      0      0    0.0  0.000     25   0.00   0.00   1.00   0.04   0.00   0.00   0.00   1.00   5.83  380.0   0.00      0     25    285.6   0.00   0.00 0.4106   0.021   0.005   0.001   0.000   0.000   0.000   0.000   0.000   0.000   0.000      0      0      0       0       0   1.911   66.073
 2024 361    66    64  13.319     1  0.085     79      0      0     30    104    104      0      0    0.0  0.000     25   0.00   0.00   1.00   0.05   0.00   0.00   0.00   1.00   5.85  380.0   0.00      0     25    285.6   0.00   0.00 0.4113   0.021   0.005   0.001   0.000   0.000   0.000   0.000   0.000   0.000   0.000      0      0      0       0       0   0.706   66.387
 2024 362    67    65  13.330     1  0.085     79      0      0     29    104    104      0      0    0.0  0.000     25   0.00   0.00   1.00   0.04   0.00   0.00   0.00   1.00   5.86  380.0   0.00      0     25    285.7   0.00   0.00 0.4118   0.021   0.005   0.001   0.000   0.000   0.000   0.000   0.000   0.000   0.000      0      0      0       0       0   0.495   66.607
 2024 363    68    66  13.347     1  0.085     79      0      0     29    104    104      0      0    0.0  0.000     25   0.00   0.00   1.00   0.03   0.00   0.00   0.00   1.00   5.87  380.0   0.00      0     25    285.7   0.00   0.00 0.4125   0.021   0.005   0.001   0.000   0.000   0.000   0.000   0.000   0.000   0.000      0      0      0       0       0   0.731   66.933
 2024 364    69    67  13.354     1  0.085     79      0      0     29    104    104      0      0    0.0  0.000     25   0.00   0.00   1.00   0.03   0.00   0.00   0.00   1.00   5.89  380.0   0.00      0     25    285.7   0.00   0.00 0.4128   0.020   0.005   0.001   0.000   0.000   0.000   0.000   0.000   0.000   0.000      0      0      0       0       0   0.319   67.076
 2024 365    70    68  13.361     1  0.085     79      0      0     28    104    104      0      0    0.0  0.000     25   0.00   0.00   1.00   0.02   0.00   0.00   0.00   1.00   5.90  380.0   0.00      0     25    285.7   0.00   0.00 0.4131   0.020   0.005   0.001   0.000   0.000   0.000   0.000   0.000   0.000   0.000      0      0      0       0       0   0.313   67.216
 2024 366    71    69  13.368     1  0.085     79      0      0     28    104    104      0      0    0.0  0.000     25   0.00   0.00   1.00   0.02   0.00   0.00   0.00   1.00   5.91  380.0   0.00      0     25    285.7   0.00   0.00 0.4134   0.020   0.005   0.001   0.000   0.000   0.000   0.000   0.000   0.000   0.000      0      0      0       0       0   0.319   67.360
 2025 001    72    70  13.408     1  0.085     79      0      0     28    104    104      0      0    0.0  0.000     25   0.00   0.00   1.00   0.01   0.00   0.00   0.00   1.00   5.91  380.0   0.00      0     25    285.8   0.00   0.00 0.4151   0.020   0.005   0.001   0.000   0.000   0.000   0.000   0.000   0.000   0.000      0      0      0       0       0   1.794   68.167
 2025 002    73    71  13.450     1  0.086     79      0      0     28    105    105      0      0    0.0  0.000     25   0.00   0.00   1.00   0.00   0.00   0.00   0.00   1.00   5.89  380.0   0.00      0     25    285.8   0.00   0.00 0.4168   0.020   0.005   0.001   0.000   0.000   0.000   0.000   0.000   0.000   0.000      0      0      0       0       0   1.855   69.004
 2025 003    74    72  13.451     1  0.086     79      0      0     28    105    105      0      0    0.0  0.000     25   0.00   0.00   1.00   0.01   0.00   0.00   0.00   1.00   5.90  380.0   0.00      0     25    285.8   0.00   0.00 0.4169   0.019   0.005   0.001   0.000   0.000   0.000   0.000   0.000   0.000   0.000      0      0      0       0       0   0.040   69.022
 2025 004    75    73  13.456     1  0.086     79      0      0     27    105    105      0      0    0.0  0.000     25   0.00   0.00   1.00   0.01   0.00   0.00   0.00   1.00   5.91  380.0   0.00      0     25    285.8   0.00   0.00 0.4171   0.019   0.005   0.001   0.000   0.000   0.000   0.000   0.000   0.000   0.000      0      0      0       0       0   0.206   69.116
 2025 005    76    74  13.499     1  0.086     80      0      0     27    105    105      0      0    0.0  0.000     25   0.00   0.00   1.00   0.00   0.00   0.00   0.00   1.00   5.90  380.0   0.00      0     25    285.9   0.00   0.00 0.4189   0.019   0.005   0.001   0.000   0.000   0.000   0.000   0.000   0.000   0.000      0      0      0       0       0   1.911   69.988
 2025 006    77    75  13.590     1  0.088     80      0      0     28    107    107      0      0    0.0  0.000     26   0.00   0.00   1.00   0.00   0.00   0.00   0.00   1.00   5.85  380.0   0.00      0     26    286.0   0.00   0.00 0.4226   0.019   0.005   0.001   0.000   0.000   0.000   0.000   0.000   0.000   0.000      0      0      0       0       0   3.950   71.798
 2025 007    78    76  13.654     1  0.091     81      0      0     28    108    108      0      0    0.0  0.000     27   0.00   0.00   1.00   0.02   0.00   0.00   0.00   1.00   5.80  380.0   0.00      0     27    286.1   0.00   0.00 0.4253   0.019   0.005   0.001   0.000   0.000   0.000   0.000   0.000   0.000   0.000      0      0      0       0       0   2.798   73.086
 2025 008    79    77  13.710     1  0.092     81      0      0     28    109    109      0      0    0.0  0.000     27   0.00   0.00   1.00   0.04   0.00   0.00   0.00   1.00   5.78  380.0   0.00      0     27    286.2   0.00   0.00 0.4276   0.018   0.005   0.001   0.000   0.000   0.000   0.000   0.000   0.000   0.000      0      0      0       0       0   2.407   74.199
 2025 009    80    78  13.823     1  0.094     82      0      0     29    111    111      0      0    0.0  0.000     28   0.00   0.00   1.00   0.05   0.00   0.00   0.00   1.00   5.72  380.0   0.00      0     28    286.4   0.00   0.00 0.4322   0.018   0.005   0.001   0.000   0.000   0.000   0.000   0.000   0.000   0.000      0      0      0       0       0   4.867   76.460
 2025 010    81    79  13.830     1  0.094     82      0      0     28    111    111      0      0    0.0  0.000     28   0.00   0.00   1.00   0.07   0.00   0.00   0.00   1.00   5.72  380.0   0.00      0     28    286.4   0.00   0.00 0.4324   0.018   0.005   0.001   0.000   0.000   0.000   0.000   0.000   0.000   0.000      0      0      0       0       0   0.281   76.592
 2025 011    82    80  13.831     1  0.094     82      0      0     28    111    111      0      0    0.0  0.000     28   0.00   0.00   1.00   0.07   0.00   0.00   0.00   1.00   5.72  380.0   0.00      0     28    286.4   0.00   0.00 0.4325   0.018   0.005   0.001   0.000   0.000   0.000   0.000   0.000   0.000   0.000      0      0      0       0       0   0.080   76.629
 2025 012    83    81  13.833     1  0.094     82      0      0     28    111    111      0      0    0.0  0.000     28   0.00   0.00   1.00   0.07   0.00   0.00   0.00   1.00   5.73  380.0   0.00      0     28    286.4   0.00   0.00 0.4326   0.018   0.005   0.001   0.000   0.000   0.000   0.000   0.000   0.000   0.000      0      0      0       0       0   0.076   76.665
 2025 013    84    82  13.836     1  0.094     82      0      0     27    111    111      0      0    0.0  0.000     28   0.00   0.00   1.00   0.07   0.00   0.00   0.00   1.00   5.73  380.0   0.00      0     28    286.4   0.00   0.00 0.4327   0.018   0.004   0.001   0.000   0.000   0.000   0.000   0.000   0.000   0.000      0      0      0       0       0   0.130   76.727
 2025 014    85    83  13.837     1  0.094     82      0      0     27    111    111      0      0    0.0  0.000     28   0.00   0.00   1.00   0.06   0.00   0.00   0.00   1.00   5.74  380.0   0.00      0     28    286.4   0.00   0.00 0.4327   0.017   0.004   0.001   0.000   0.000   0.000   0.000   0.000   0.000   0.000      0      0      0       0       0   0.011   76.732
 2025 015    86    84  13.850     1  0.094     82      0      0     27    111    111      0      0    0.0  0.000     28   0.00   0.00   1.00   0.06   0.00   0.00   0.00   1.00   5.74  380.0   0.00      0     28    286.4   0.00   0.00 0.4332   0.017   0.004   0.001   0.000   0.000   0.000   0.000   0.000   0.000   0.000      0      0      0       0       0   0.544   76.994
 2025 016    87    85  13.893     1  0.095     83      0      0     27    111    111      0      0    0.0  0.000     28   0.00   0.00   1.00   0.06   0.00   0.00   0.00   1.00   5.72  380.0   0.00      0     28    286.4   0.00   0.00 0.4349   0.017   0.004   0.001   0.000   0.000   0.000   0.000   0.000   0.000   0.000      0      0      0       0       0   1.795   77.861
 2025 017    88    86  13.911     1  0.095     83      0      0     27    111    111      0      0    0.0  0.000     28   0.00   0.00   1.00   0.07   0.00   0.00   0.00   1.00   5.73  380.0   0.00      0     28    286.5   0.00   0.00 0.4356   0.017   0.004   0.001   0.000   0.000   0.000   0.000   0.000   0.000   0.000      0      0      0       0       0   0.729   78.216
 2025 018    89    87  13.911     1  0.095     83      0      0     27    111    111      0      0    0.0  0.000     28   0.00   0.00   1.00   0.06   0.00   0.00   0.00   1.00   5.73  380.0   0.00      0     28    286.5   0.00   0.00 0.4356   0.017   0.004   0.001   0.000   0.000   0.000   0.000   0.000   0.000   0.000      0      0      0       0       0   0.000   78.216
 2025 019    90    88  13.937     1  0.095     83      0      0     26    111    111      0      0    0.0  0.000     28   0.00   0.00   1.00   0.06   0.00   0.00   0.00   1.00   5.73  380.0   0.00      0     28    286.5   0.00   0.00 0.4366   0.017   0.004   0.001   0.000   0.000   0.000   0.000   0.000   0.000   0.000      0      0      0       0       0   1.053   78.735
 2025 020    91    89  13.984     1  0.096     83      0      0     27    112    112      0      0    0.0  0.000     29   0.00   0.00   1.00   0.06   0.00   0.00   0.00   1.00   5.72  380.0   0.00      0     29    286.6   0.00   0.00 0.4384   0.016   0.004   0.001   0.000   0.000   0.000   0.000   0.000   0.000   0.000      0      0      0       0       0   1.895   79.675
 2025 021    92    90  14.013     1  0.096     83      0      0     26    112    112      0      0    0.0  0.000     29   0.00   0.00   1.00   0.06   0.00   0.00   0.00   1.00   5.72  380.0   0.00      0     29    286.6   0.00   0.00 0.4395   0.016   0.004   0.001   0.000   0.000   0.000   0.000   0.000   0.000   0.000      0      0      0       0       0   1.161   80.255
 2025 022    93    91  14.035     1  0.096     83      0      0     26    112    112      0      0    0.0  0.000     29   0.00   0.00   1.00   0.06   0.00   0.00   0.00   1.00   5.72  380.0   0.00      0     29    286.6   0.00   0.00 0.4404   0.016   0.004   0.001   0.000   0.000   0.000   0.000   0.000   0.000   0.000      0      0      0       0       0   0.885   80.700
 2025 023    94    92  14.091     1  0.098     84      0      0     26    113    113      0      0    0.0  0.000     29   0.00   0.00   1.00   0.06   0.00   0.00   0.00   1.00   5.68  380.0   0.00      0     29    286.7   0.00   0.00 0.4425   0.016   0.004   0.001   0.000   0.000   0.000   0.000   0.000   0.000   0.000      0      0      0       0       0   2.216   81.823
 2025 024    95    93  14.191     1  0.101     85      0      0     27    116    116      0      0    0.0  0.000     30   0.00   0.00   1.00   0.07   0.00   0.00   0.00   1.00   5.60  380.0   0.00      0     30    286.8   0.00   0.00 0.4462   0.016   0.004   0.001   0.000   0.000   0.000   0.000   0.000   0.000   0.000      0      0      0       0       0   3.917   83.822
 2025 025    96    94  14.330     1  0.107     87      0      0     29    119    119      0      0    0.0  0.000     32   0.00   0.00   1.00   0.10   0.00   0.00   0.00   1.00   5.48  380.0   0.00      0     32    287.0   0.00   0.00 0.4513   0.016   0.004   0.001   0.000   0.000   0.000   0.000   0.000   0.000   0.000      0      0      0       0       0   5.400   86.598
 2025 026    97    95  14.417     1  0.110     88      0      0     29    122    122      0      0    0.0  0.000     34   0.00   0.00   1.00   0.15   0.00   0.00   0.00   1.00   5.41  380.0   0.00      0     34    287.1   0.00   0.00 0.4545   0.016   0.004   0.001   0.000   0.000   0.000   0.000   0.000   0.000   0.000      0      0      0       0       0   3.350   88.332
 2025 027    98    96  14.560     1  0.114     89      0      0     30    124    124      0      0    0.0  0.000     35   0.00   0.00   1.00   0.17   0.00   0.00   0.00   1.00   5.34  380.0   0.00      0     35    287.3   0.00   0.00 0.4597   0.015   0.004   0.001   0.000   0.000   0.000   0.000   0.000   0.000   0.000      0      0      0       0       0   5.500   91.202
 2025 028    99    97  14.642     1  0.116     90      0      0     30    126    126      0      0    0.0  0.000     35   0.00   0.00   1.00   0.20   0.00   0.00   0.00   1.00   5.31  380.0   0.00      0     35    287.4   0.00   0.00 0.4626   0.015   0.004   0.001   0.000   0.000   0.000   0.000   0.000   0.000   0.000      0      0      0       0       0   3.100   92.831
 2025 029   100    98  14.757     1  0.121     92      0      0     32    129    129      0      0    0.0  0.000     37   0.00   0.00   1.00   0.21   0.00   0.00   0.00   1.00   5.21  380.0   0.00      0     37    287.6   0.00   0.00 0.4668   0.015   0.004   0.001   0.000   0.000   0.000   0.000   0.000   0.000   0.000      0      0      0       0       0   4.347   95.134
 2025 030   101    99  14.855     1  0.126     93      0      0     33    133    133      0      0    0.0  0.000     39   0.00   0.00   1.00   0.24   0.00   0.00   0.00   1.00   5.11  380.0   0.00      0     39    287.7   0.00   0.00 0.4703   0.015   0.004   0.001   0.000   0.000   0.000   0.000   0.000   0.000   0.000      0      0      0       0       0   3.688   97.102
 2025 031   102   100  14.909     1  0.127     94      0      0     33    134    134      0      0    0.0  0.000     39   0.00   0.00   1.00   0.28   0.00   0.00   0.00   1.00   5.09  380.0   0.00      0     39    287.8   0.00   0.00 0.4722   0.015   0.004   0.001   0.000   0.000   0.000   0.000   0.000   0.000   0.000      0      0      0       0       0   2.017   98.186
 2025 032   103   101  14.946     1  0.127     94      0      0     33    134    134      0      0    0.0  0.000     39   0.00   0.00   1.00   0.29   0.00   0.00   0.00   1.00   5.09  380.0   0.00      0     39    287.8   0.00   0.00 0.4734   0.015   0.004   0.001   0.000   0.000   0.000   0.000   0.000   0.000   0.000      0      0      0       0       0   1.347   98.916
 2025 033   104   102  14.991     1  0.128     94      0      0     33    134    134      0      0    0.0  0.000     40   0.00   0.00   1.00   0.29   0.00   0.00   0.00   1.00   5.09  380.0   0.00      0     40    287.9   0.00   0.00 0.4750   0.015   0.004   0.001   0.000   0.000   0.000   0.000   0.000   0.000   0.000      0      0      0       0       0   1.647   99.816
 2025 034   105   103  15.009     1  0.128     94      0      0     33    134    134      0      0    0.0  0.000     40   0.00   0.00   1.00   0.29   0.00   0.00   0.00   1.00   5.09  380.0   0.00      0     40    287.9   0.00   0.00 0.4756   0.015   0.004   0.001   0.000   0.000   0.000   0.000   0.000   0.000   0.000      0      0      0       0       0   0.664  100.181
 2025 035   106   104  15.026     1  0.128     94      0      0     32    134    134      0      0    0.0  0.000     40   0.00   0.00   1.00   0.28   0.00   0.00   0.00   1.00   5.10  380.0   0.00      0     40    287.9   0.00   0.00 0.4762   0.014   0.004   0.001   0.000   0.000   0.000   0.000   0.000   0.000   0.000      0      0      0       0       0   0.600  100.514
 2025 036   107   105  15.067     1  0.128     94      0      0     32    134    134      0      0    0.0  0.000     40   0.00   0.00   1.00   0.28   0.00   0.00   0.00   1.00   5.10  380.0   0.00      0     40    288.0   0.00   0.00 0.4776   0.014   0.004   0.001   0.000   0.000   0.000   0.000   0.000   0.000   0.000      0      0      0       0       0   1.489  101.347
 2025 037   108   106  15.112     1  0.128     94      0      0     32    134    134      0      0    0.0  0.000     40   0.00   0.00   1.00   0.28   0.00   0.00   0.00   1.00   5.09  380.0   0.00      0     40    288.0   0.00   0.00 0.4791   0.014   0.004   0.001   0.000   0.000   0.000   0.000   0.000   0.000   0.000      0      0      0       0       0   1.578  102.236
 2025 038   109   107  15.156     1  0.129     94      0      0     32    135    135      0      0    0.0  0.000     40   0.00   0.00   1.00   0.28   0.00   0.00   0.00   1.00   5.09  380.0   0.00      0     40    288.1   0.00   0.00 0.4806   0.014   0.004   0.001   0.000   0.000   0.000   0.000   0.000   0.000   0.000      0      0      0       0       0   1.566  103.125
 2025 039   110   108  15.227     1  0.132     95      0      0     34    137    137      0      0    0.0  0.000     41   0.00   0.00   1.00   0.28   0.00   0.00   0.00   1.00   5.04  380.0   0.00      0     41    288.1   0.00   0.00 0.4829   0.014   0.004   0.001   0.000   0.000   0.000   0.000   0.000   0.000   0.000      0      0      0       0       0   2.479  104.543
 2025 040   111   109  15.278     1  0.133     96      0      0     34    137    137      0      0    0.0  0.000     41   0.00   0.00   1.00   0.30   0.00   0.00   0.00   1.00   5.03  380.0   0.00      0     41    288.2   0.00   0.00 0.4846   0.014   0.004   0.001   0.000   0.000   0.000   0.000   0.000   0.000   0.000      0      0      0       0       0   1.776  105.568
 2025 041   112   110  15.357     1  0.137     97      0      0     36    140    140      0      0    0.0  0.000     43   0.00   0.00   1.00   0.30   0.00   0.00   0.00   1.00   4.96  380.0   0.00      0     43    288.3   0.00   0.00 0.4872   0.014   0.004   0.001   0.001   0.000   0.000   0.000   0.000   0.000   0.000      0      0      0       0       0   2.707  107.141
 2025 042   113   111  15.407     1  0.138     97      0      0     37    141    141      0      0    0.0  0.000     43   0.00   0.00   1.00   0.32   0.00   0.00   0.00   1.00   4.95  380.0   0.00      0     43    288.4   0.00   0.00 0.4888   0.014   0.004   0.001   0.001   0.000   0.000   0.000   0.000   0.000   0.000      0      0      0       0       0   1.708  108.142
 2025 043   114   112  15.524     1  0.142     99      0      0     38    144    144      0      0    0.0  0.000     45   0.00   0.00   1.00   0.32   0.00   0.00   0.00   1.00   4.87  380.0   0.00      0     45    288.5   0.00   0.00 0.4926   0.014   0.004   0.001   0.001   0.000   0.000   0.000   0.000   0.000   0.000      0      0      0       0       0   3.950  110.474
 2025 044   115   113  15.564     1  0.142     99      0      0     37    144    144      0      0    0.0  0.000     45   0.00   0.00   1.00   0.35   0.00   0.00   0.00   1.00   4.87  380.0   0.00      0     45    288.5   0.00   0.00 0.4938   0.013   0.004   0.001   0.001   0.000   0.000   0.000   0.000   0.000   0.000      0      0      0       0       0   1.344  111.274
 2025 045   116   114  15.566     1  0.142     99      0      0     37    144    144      0      0    0.0  0.000     45   0.00   0.00   1.00   0.35   0.00   0.00   0.00   1.00   4.88  380.0   0.00      0     45    288.5   0.00   0.00 0.4939   0.013   0.004   0.001   0.001   0.000   0.000   0.000   0.000   0.000   0.000      0      0      0       0       0   0.063  111.312
 2025 046   117   115  15.569     1  0.142     99      0      0     37    144    144      0      0    0.0  0.000     45   0.00   0.00   1.00   0.35   0.00   0.00   0.00   1.00   4.88  380.0   0.00      0     45    288.5   0.00   0.00 0.4940   0.013   0.004   0.001   0.001   0.000   0.000   0.000   0.000   0.000   0.000      0      0      0       0       0   0.107  111.376
 2025 047   118   116  15.569     1  0.142     99      0      0     36    144    144      0      0    0.0  0.000     45   0.00   0.00   1.00   0.35   0.00   0.00   0.00   1.00   4.88  380.0   0.00      0     45    288.5   0.00   0.00 0.4940   0.013   0.004   0.001   0.001   0.000   0.000   0.000   0.000   0.000   0.000      0      0      0       0       0   0.008  111.381
 2025 048   119   117  15.569     1  0.142     99      0      0     36    144    144      0      0    0.0  0.000     45   0.00   0.00   1.00   0.35   0.00   0.00   0.00   1.00   4.89  380.0   0.00      0     45    288.5   0.00   0.00 0.4940   0.013   0.004   0.001   0.001   0.000   0.000   0.000   0.000   0.000   0.000      0      0      0       0       0   0.009  111.387
 2025 049   120   118  15.570     1  0.142     99      0      0     36    144    144      0      0    0.0  0.000     45   0.00   0.00   1.00   0.35   0.00   0.00   0.00   1.00   4.89  380.0   0.00      0     45    288.5   0.00   0.00 0.4940   0.013   0.004   0.001   0.001   0.000   0.000   0.000   0.000   0.000   0.000      0      0      0       0       0   0.027  111.403
 2025 050   121   119  15.578     1  0.142     99      0      0     35    144    144      0      0    0.0  0.000     45   0.00   0.00   1.00   0.35   0.00   0.00   0.00   1.00   4.89  380.0   0.00      0     45    288.6   0.00   0.00 0.4943   0.013   0.004   0.001   0.001   0.000   0.000   0.000   0.000   0.000   0.000      0      0      0       0       0   0.248  111.558
 2025 051   122   120  15.660     1  0.143     99      0      0     35    144    144      0      0    0.0  0.000     45   0.00   0.00   1.00   0.34   0.00   0.00   0.00   1.00   4.89  380.0   0.00      0     45    288.6   0.00   0.00 0.4967   0.013   0.004   0.001   0.001   0.000   0.000   0.000   0.000   0.000   0.000      0      0      0       0       0   2.605  113.193
 2025 052   123   121  15.834     1  0.157    104      0      0     39    154    154      0      0    0.0  0.000     50   0.00   0.00   1.00   0.34   0.00   0.00   0.00   1.00   4.66  380.0   0.00      0     50    288.8   0.00   0.00 0.5020   0.012   0.004   0.001   0.001   0.000   0.000   0.000   0.000   0.000   0.000      0      0      0       0       0   5.500  116.671
 2025 053   124   122  16.001     1  0.169    108      0      0     42    163    163      0      0    0.0  0.000     54   0.00   0.00   1.00   0.42   0.00   0.00   0.00   1.00   4.48  380.0   0.00      0     54    289.0   0.00   0.00 0.5060   0.012   0.004   0.001   0.001   0.000   0.000   0.000   0.000   0.000   0.000      0      0      0       0       0   5.249  120.015
 2025 054   125   123  16.219     1  0.182    113      0      0     45    171    171      0      0    0.0  0.000     58   0.00   0.00   1.00   0.48   0.00   0.00   0.00   1.00   4.31  380.0   0.00      0     58    289.3   0.00   0.00 0.5112   0.012   0.004   0.001   0.001   0.000   0.000   0.000   0.000   0.000   0.000      0      0      0       0       0   6.800  124.379
 2025 055   126   124  16.403     1  0.193    117      0      0     48    179    179      0      0    0.0  0.000     62   0.00   0.00   1.00   0.54   0.00   0.00   0.00   1.00   4.17  380.0   0.00      0     62    289.5   0.00   0.00 0.5156   0.012   0.004   0.001   0.001   0.001   0.000   0.000   0.000   0.000   0.000      0      0      0       0       0   5.700  128.065
 2025 056   127   125  16.649     1  0.204    120      0      0     51    187    187      0      0    0.0  0.000     66   0.00   0.00   1.00   0.59   0.00   0.00   0.00   1.00   4.05  380.0   0.00      0     66    289.7   0.00   0.00 0.5214   0.012   0.004   0.001   0.001   0.001   0.000   0.000   0.000   0.000   0.000      0      0      0       0       0   7.550  132.982
 2025 057   128   126  16.753     1  0.207    122      0      0     52    189    189      0      0    0.0  0.000     67   0.00   0.00   1.00   0.63   0.00   0.00   0.00   1.00   4.01  380.0   0.00      0     67    289.8   0.00   0.00 0.5239   0.012   0.004   0.001   0.001   0.001   0.000   0.000   0.000   0.000   0.000      0      0      0       0       0   3.159  135.053
 2025 058   129   127  16.855     1  0.213    123      0      0     53    193    193      0      0    0.0  0.000     69   0.00   0.00   1.00   0.64   0.00   0.00   0.00   1.00   3.96  380.0   0.00      0     69    289.9   0.00   0.00 0.5262   0.012   0.004   0.001   0.001   0.001   0.000   0.000   0.000   0.000   0.000      0      0      0       0       0   3.084  137.091
 2025 059   130   128  16.940     1  0.217    125      0      0     54    195    195      0      0    0.0  0.000     70   0.00   0.00   1.00   0.66   0.00   0.00   0.00   1.00   3.92  380.0   0.00      0     70    290.0   0.00   0.00 0.5282   0.012   0.004   0.001   0.001   0.001   0.000   0.000   0.000   0.000   0.000      0      0      0       0       0   2.566  138.798
 2025 060   131   129  17.031     1  0.221    126      0      0     56    198    198      0      0    0.0  0.000     72   0.00   0.00   1.00   0.67   0.00   0.00   0.00   1.00   3.89  380.0   0.00      0     72    290.1   0.00   0.00 0.5303   0.012   0.004   0.001   0.001   0.001   0.000   0.000   0.000   0.000   0.000      0      0      0       0       0   2.728  140.627
 2025 061   132   130  17.146     1  0.228    129      0      0     61    203    203      0      0    0.0  0.000     74   0.00   0.00   1.00   0.68   0.00   0.00   0.00   1.00   3.82  380.0   0.00      0     74    290.2   0.00   0.00 0.5329   0.012   0.004   0.001   0.001   0.001   0.000   0.000   0.000   0.000   0.000      0      0      0       0       0   3.404  142.924
 2025 062   133   131  17.282     1  0.228    129      0      0     60    203    203      0      0    0.0  0.000     74   0.00   0.00   1.00   0.70   0.00   0.00   0.00   1.00   3.82  380.0   0.00      0     74    290.3   0.00   0.00 0.5360   0.012   0.004   0.001   0.001   0.001   0.001   0.000   0.000   0.000   0.000      0      0      0       0       0   4.000  145.641
 2025 063   134   132  17.467     1  0.241    133      0      0     63    212    212      0      0    0.0  0.000     79   0.00   0.00   1.00   0.70   0.00   0.00   0.00   1.00   3.70  380.0   0.00      0     79    290.5   0.00   0.00 0.5402   0.012   0.004   0.001   0.001   0.001   0.001   0.000   0.000   0.000   0.000      0      0      0       0       0   5.395  149.333
 2025 064   135   133  17.716     1  0.254    138      0      0     67    221    221      0      0    0.0  0.000     83   0.00   0.00   1.00   0.73   0.00   0.00   0.00   1.00   3.58  380.0   0.00      0     83    290.8   0.00   0.00 0.5458   0.012   0.004   0.002   0.001   0.001   0.001   0.000   0.000   0.000   0.000      0      0      0       0       0   7.238  154.319
 2025 065   136   134  18.010     1  0.269    143      0      0     70    231    231      0      0    0.0  0.000     88   0.00   0.00   1.00   0.77   0.00   0.00   0.00   1.00   3.47  380.0   0.00      0     88    291.0   0.00   0.00 0.5523   0.012   0.004   0.002   0.001   0.001   0.001   0.000   0.000   0.000   0.000      0      0      0       0       0   8.470  160.192
 2025 066   137   135  18.308     1  0.281    147      0      0     73    240    240      0      0    0.0  0.000     93   0.00   0.00   1.00   0.80   0.00   0.00   0.00   1.00   3.37  380.0   0.00      0     93    291.3   0.00   0.00 0.5589   0.012   0.004   0.002   0.001   0.001   0.001   0.000   0.000   0.000   0.000      0      0      0       0       0   8.550  166.162
 2025 067   138   136  18.614     1  0.293    151      0      0     76    248    248      0      0    0.0  0.000     97   0.00   0.00   1.00   0.83   0.00   0.00   0.00   1.00   3.29  380.0   0.00      0     97    291.5   0.00   0.00 0.5656   0.012   0.004   0.002   0.001   0.001   0.001   0.000   0.000   0.000   0.000      0      0      0       0       0   8.700  172.277
 2025 068   139   137  18.936     1  0.303    154      0      0     78    255    255      0      0    0.0  0.000    100   0.00   0.00   1.00   0.86   0.00   0.00   0.00   1.00   3.22  380.0   0.00      0    100    291.8   0.00   0.00 0.5726   0.012   0.004   0.002   0.001   0.001   0.001   0.000   0.000   0.000   0.000      0      0      0       0       0   9.100  178.714
 2025 069   140   138  19.242     1  0.311    157      0      0     80    260    260      0      0    0.0  0.000    103   0.00   0.00   1.00   0.87   0.00   0.00   0.00   1.00   3.18  380.0   0.00      0    103    292.1   0.00   0.00 0.5792   0.012   0.004   0.002   0.001   0.001   0.001   0.000   0.000   0.000   0.000      0      0      0       0       0   8.600  184.838
 2025 070   141   139  19.500     1  0.317    159      0      0     81    264    264      0      0    0.0  0.000    105   0.00   0.00   1.00   0.88   0.00   0.00   0.00   1.00   3.15  380.0   0.00      0    105    292.3   0.00   0.00 0.5847   0.012   0.004   0.002   0.001   0.001   0.001   0.000   0.000   0.000   0.000      0      0      0       0       0   7.200  189.997
 2025 071   142   140  19.666     1  0.320    160      0      0     81    266    266      0      0    0.0  0.000    106   0.00   0.00   1.00   0.89   0.00   0.00   0.00   1.00   3.15  380.0   0.00      0    106    292.4   0.00   0.00 0.5883   0.012   0.004   0.002   0.001   0.001   0.001   0.000   0.000   0.000   0.000      0      0      0       0       0   4.600  193.315
 2025 072   143   141  19.782     1  0.323    161      0      0     81    268    268      0      0    0.0  0.000    107   0.00   0.00   1.00   0.89   0.00   0.00   0.00   1.00   3.15  380.0   0.00      0    107    292.5   0.00   0.00 0.5907   0.012   0.004   0.002   0.001   0.001   0.001   0.000   0.000   0.000   0.000      0      0      0       0       0   3.200  195.637
 2025 073   144   142  19.933     1  0.326    162      0      0     81    271    271      0      0    0.0  0.000    108   0.00   0.00   1.00   0.88   0.00   0.00   0.00   1.00   3.15  380.0   0.00      0    108    292.6   0.00   0.00 0.5939   0.012   0.004   0.002   0.001   0.001   0.001   0.000   0.000   0.000   0.000      0      0      0       0       0   4.150  198.668
 2025 074   145   143  20.110     1  0.331    164      0      0     82    274    274      0      0    0.0  0.000    110   0.00   0.00   1.00   0.88   0.00   0.00   0.00   1.00   3.14  380.0   0.00      0    110    292.7   0.00   0.00 0.5976   0.011   0.004   0.002   0.001   0.001   0.001   0.000   0.000   0.000   0.000      0      0      0       0       0   4.810  202.202
 2025 075   146   144  20.286     1  0.336    166      0      0     84    278    278      0      0    0.0  0.000    111   0.00   0.00   1.00   0.88   0.00   0.00   0.00   1.00   3.13  380.0   0.00      0    111    292.9   0.00   0.00 0.6013   0.011   0.004   0.002   0.001   0.001   0.001   0.000   0.000   0.000   0.000      0      0      0       0       0   4.766  205.725
 2025 076   147   145  20.375     1  0.337    166      0      0     84    278    278      0      0    0.0  0.000    112   0.00   0.00   1.00   0.88   0.00   0.00   0.00   1.00   3.14  380.0   0.00      0    112    292.9   0.00   0.00 0.6029   0.011   0.004   0.002   0.001   0.001   0.001   0.000   0.000   0.000   0.000      0      0      0       0       0   2.390  207.503
 2025 077   148   146  20.471     1  0.337    166      0      0     83    278    278      0      0    0.0  0.000    112   0.00   0.00   1.00   0.88   0.00   0.00   0.00   1.00   3.15  380.0   0.00      0    112    293.0   0.00   0.00 0.6047   0.011   0.004   0.002   0.001   0.001   0.001   0.000   0.000   0.000   0.000      0      0      0       0       0   2.550  209.411
 2025 078   149   147  20.672     1  0.338    166      0      0     82    278    278      0      0    0.0  0.000    112   0.00   0.00   1.00   0.87   0.00   0.00   0.00   1.00   3.16  380.0   0.00      0    112    293.1   0.00   0.00 0.6083   0.011   0.004   0.002   0.001   0.001   0.001   0.000   0.000   0.000   0.000      0      0      0       0       0   5.360  213.444
 2025 079   150   148  21.023     1  0.350    170      0      0     85    287    287      0      0    0.0  0.000    116   0.00   0.00   1.00   0.86   0.00   0.00   0.00   1.00   3.10  380.0   0.00      0    116    293.4   0.00   0.00 0.6146   0.011   0.004   0.002   0.001   0.001   0.001   0.000   0.000   0.000   0.000      0      0      0       0       0   9.270  220.460
 2025 080   151   149  21.409     1  0.362    174      0      0     88    295    295      0      0    0.0  0.000    120   0.00   0.00   1.00   0.88   0.00   0.00   0.00   1.00   3.04  380.0   0.00      0    120    293.6   0.00   0.00 0.6214   0.011   0.004   0.002   0.001   0.001   0.001   0.000   0.000   0.000   0.000      0      0      0       0       0  10.150  228.187
 2025 081   152   150  21.790     1  0.371    177      0      0     90    301    301      0      0    0.0  0.000    123   0.00   0.00   1.00   0.89   0.00   0.00   0.00   1.00   3.00  380.0   0.00      0    123    293.8   0.00   0.00 0.6282   0.011   0.004   0.002   0.002   0.001   0.001   0.000   0.000   0.000   0.000      0      0      0       0       0   9.950  235.805
 2025 082   153   151  22.116     1  0.378    180      0      0     91    306    306      0      0    0.0  0.000    126   0.00   0.00   1.00   0.90   0.00   0.00   0.00   1.00   2.97  380.0   0.00      0    126    294.0   0.00   0.00 0.6339   0.011   0.004   0.002   0.002   0.001   0.001   0.000   0.000   0.000   0.000      0      0      0       0       0   8.450  242.310
 2025 083   154   152  22.479     1  0.383    182      0      0     92    310    310      0      0    0.0  0.000    127   0.00   0.00   1.00   0.91   0.00   0.00   0.00   1.00   2.95  380.0   0.00      0    127    294.3   0.00   0.00 0.6403   0.011   0.004   0.002   0.002   0.001   0.001   0.000   0.000   0.000   0.000      0      0      0       0       0   9.400  249.587
 2025 084   155   153  22.865     1  0.391    184      0      0     93    315    315      0      0    0.0  0.000    130   0.00   0.00   1.00   0.91   0.00   0.00   0.00   1.00   2.92  380.0   0.00      0    130    294.5   0.00   0.00 0.6470   0.011   0.004   0.002   0.002   0.001   0.001   0.000   0.000   0.000   0.000      0      0      0       0       0   9.900  257.293
 2025 085   156   154  23.123     1  0.395    186      0      0     93    318    318      0      0    0.0  0.000    131   0.00   0.00   1.00   0.91   0.00   0.00   0.00   1.00   2.92  380.0   0.00      0    131    294.6   0.00   0.00 0.6515   0.011   0.004   0.002   0.002   0.001   0.001   0.000   0.000   0.000   0.000      0      0      0       0       0   6.600  262.459
 2025 086   157   155  23.400     1  0.401    188      0      0     95    322    322      0      0    0.0  0.000    134   0.00   0.00   1.00   0.91   0.00   0.00   0.00   1.00   2.91  380.0   0.00      0    134    294.8   0.00   0.00 0.6562   0.011   0.004   0.002   0.002   0.001   0.001   0.000   0.000   0.000   0.000      0      0      0       0       0   7.050  268.005
 2025 087   158   156  23.714     1  0.409    190      0      0     99    327    327      0      0    0.0  0.000    136   0.00   0.00   1.00   0.91   0.00   0.00   0.00   1.00   2.90  380.0   0.00      0    136    294.9   0.00   0.00 0.6616   0.011   0.004   0.002   0.002   0.001   0.001   0.000   0.000   0.000   0.000      0      0      0       0       0   7.939  274.284
 2025 088   159   157  24.040     1  0.416    193      0      0    100    331    331      0      0    0.0  0.000    138   0.00   0.00   1.00   0.90   0.00   0.00   0.00   1.00   2.90  380.0   0.00      0    138    295.1   0.00   0.00 0.6672   0.011   0.005   0.002   0.002   0.001   0.001   0.000   0.000   0.000   0.000      0      0      0       0       0   8.200  280.803
 2025 089   160   158  24.276     1  0.422    195      0      0    101    336    336      0      0    0.0  0.000    140   0.00   0.00   1.00   0.90   0.00   0.00   0.00   1.00   2.90  380.0   0.00      0    140    295.2   0.00   0.00 0.6712   0.011   0.005   0.002   0.002   0.001   0.001   0.000   0.000   0.000   0.000      0      0      0       0       0   5.900  285.518
 2025 090   161   159  24.487     1  0.427    196      0      0    101    339    339      0      0    0.0  0.000    142   0.00   0.00   1.00   0.89   0.00   0.00   0.00   1.00   2.90  380.0   0.00      0    142    295.3   0.00   0.00 0.6747   0.011   0.005   0.002   0.002   0.001   0.001   0.000   0.000   0.000   0.000      0      0      0       0       0   5.250  289.734
 2025 091   162   160  24.705     1  0.433    199      0      0    105    343    343      0      0    0.0  0.000    144   0.00   0.00   1.00   0.89   0.00   0.00   0.00   1.00   2.90  380.0   0.00      0    144    295.4   0.00   0.00 0.6784   0.011   0.005   0.002   0.002   0.001   0.001   0.001   0.000   0.000   0.000      0      0      0       0       0   5.400  294.092
 2025 092   163   161  25.035     1  0.443    202      0      0    109    350    350      0      0    0.0  0.000    148   0.00   0.00   1.00   0.88   0.00   0.00   0.00   1.00   2.88  380.0   0.00      0    148    295.6   0.00   0.00 0.6839   0.011   0.005   0.003   0.002   0.001   0.001   0.001   0.000   0.000   0.000      0      0      0       0       0   8.150  300.703
 2025 093   164   162  25.465     1  0.457    207      0      0    115    359    359      0      0    0.0  0.000    152   0.00   0.00   1.00   0.88   0.00   0.00   0.00   1.00   2.85  380.0   0.00      0    152    295.7   0.00   0.00 0.6911   0.011   0.005   0.003   0.002   0.001   0.001   0.001   0.000   0.000   0.000      0      0      0       0       0  10.550  309.301
 2025 094   165   163  25.891     1  0.465    211      0      0    120    368    368      0      0    0.0  0.000    157   0.00   0.00   1.00   0.89   0.00   0.00   0.00   1.00   2.82  380.0   0.00      0    157    295.9   0.00   0.00 0.6981   0.011   0.005   0.003   0.002   0.002   0.001   0.001   0.000   0.000   0.000      0      0      0       0       0  10.400  317.817
 2025 095   166   164  26.317     1  0.474    215      0      0    125    376    376      0      0    0.0  0.000    161   0.00   0.00   1.00   0.89   0.00   0.00   0.00   1.00   2.79  380.0   0.00      0    161    296.1   0.00   0.00 0.7051   0.011   0.005   0.003   0.002   0.002   0.001   0.001   0.000   0.000   0.000      0      0      0       0       0  10.350  326.333
 2025 096   167   165  26.483     1  0.476    217      0      0    127    379    379      0      0    0.0  0.000    162   0.00   0.00   1.00   0.90   0.00   0.00   0.00   1.00   2.80  380.0   0.00      0    162    296.2   0.00   0.00 0.7071   0.011   0.005   0.003   0.002   0.002   0.001   0.001   0.000   0.000   0.000      0      0      0       0       0   4.034  329.667
 2025 097   168   166  26.666     1  0.475    217      0      0    126    379    379      0      0    0.0  0.000    162   0.00   0.00   1.00   0.89   0.00   0.00   0.00   1.00   2.82  380.0   0.00      0    162    296.2   0.00   0.00 0.7093   0.011   0.005   0.003   0.002   0.002   0.001   0.001   0.000   0.000   0.000      0      0      0       0       0   4.407  333.326
 2025 098   169   167  26.956     1  0.484    220      0      0    131    386    386      0      0    0.0  0.000    166   0.00   0.00   1.00   0.87   0.00   0.00   0.00   1.00   2.80  380.0   0.00      0    166    296.3   0.00   0.00 0.7127   0.011   0.005   0.003   0.002   0.002   0.001   0.001   0.000   0.000   0.000      0      0      0       0       0   6.937  339.111
 2025 099   170   168  27.226     1  0.491    223      0      0    136    392    392      0      0    0.0  0.000    169   0.00   0.00   1.00   0.87   0.00   0.00   0.00   1.00   2.79  380.0   0.00      0    169    296.4   0.00   0.00 0.7158   0.011   0.005   0.003   0.002   0.002   0.001   0.001   0.000   0.000   0.000      0      0      0       0       0   6.450  344.515
 2025 100   171   169  27.545     1  0.501    227      0      0    141    399    399      0      0    0.0  0.000    172   0.00   0.00   1.00   0.87   0.00   0.00   0.00   1.00   2.76  380.0   0.00      0    172    296.5   0.00   0.00 0.7196   0.011   0.005   0.003   0.002   0.002   0.001   0.001   0.000   0.000   0.000      0      0      0       0       0   7.600  350.909
 2025 101   172   170  27.932     1  0.512    231      0      0    149    408    408      0      0    0.0  0.000    177   0.00   0.00   1.00   0.87   0.00   0.00   0.00   1.00   2.73  380.0   0.00      0    177    296.7   0.00   0.00 0.7240   0.011   0.005   0.003   0.002   0.002   0.001   0.001   0.000   0.000   0.000      0      0      0       0       0   9.160  358.649
 2025 102   173   171  28.395     1  0.525    236      0      0    156    418    418      0      0    0.0  0.000    182   0.00   0.00   1.00   0.88   0.00   0.00   0.00   1.00   2.70  380.0   0.00      0    182    296.8   0.00   0.00 0.7294   0.011   0.006   0.003   0.002   0.002   0.002   0.001   0.001   0.000   0.000      0      0      0       0       0  10.900  367.899
 2025 103   174   172  28.906     1  0.536    240      0      0    158    426    426      0      0    0.0  0.000    186   0.00   0.00   1.00   0.89   0.00   0.00   0.00   1.00   2.67  380.0   0.00      0    186    297.0   0.00   0.00 0.7353   0.011   0.006   0.004   0.003   0.002   0.002   0.001   0.001   0.000   0.000      0      0      0       0       0  12.000  378.124
 2025 104   175   173  29.458     1  0.549    245      0      0    161    436    436      0      0    0.0  0.000    191   0.00   0.00   1.00   0.89   0.00   0.00   0.00   1.00   2.64  380.0   0.00      0    191    297.1   0.00   0.00 0.7416   0.011   0.006   0.004   0.003   0.002   0.002   0.001   0.001   0.000   0.000      0      0      0       0       0  12.900  389.160
 2025 105   176   174  30.069     2  0.561    249      2      0    164    446    446      0      0    0.0  0.000    195   0.00   0.00   1.00   0.89   0.00   0.00   0.00   1.00   2.62  601.2   0.00      0    195    297.1   0.00   0.00 0.7489   0.011   0.006   0.004   0.003   0.002   0.002   0.001   0.001   0.000   0.000      0      0      0       0       0  14.850    1.916
 2025 106   177   175  30.652     2  0.573    254      4      0    167    458    458      0      0    0.0  0.000    200   0.00   0.00   1.00   0.89   0.00   0.00   0.00   1.00   2.60  600.3   0.00      0    200    297.1   0.00   0.00 0.7568   0.011   0.006   0.004   0.003   0.002   0.002   0.001   0.001   0.000   0.000      0      0      0       0       0  16.150   18.066
 2025 107   178   176  31.041     2  0.573    257      5      0    168    466    466      0      0    0.0  0.000    203   0.00   0.00   1.00   0.89   0.00   0.00   0.00   1.00   2.59  594.1   0.00      0    203    297.1   0.00   0.00 0.7621   0.011   0.006   0.004   0.003   0.002   0.002   0.001   0.001   0.000   0.000      0      0      0       0       0  10.750   28.816
 2025 108   179   177  31.319     2  0.572    259      6      0    168    470    470      0      0    0.0  0.000    205   0.00   0.00   1.00   0.88   0.00   0.00   0.00   1.00   2.61  587.5   0.00      0    205    297.1   0.00   0.00 0.7659   0.011   0.006   0.004   0.003   0.002   0.002   0.001   0.001   0.000   0.000      0      0      0       0       0   7.700   36.516
 2025 109   180   178  31.683     2  0.584    264      9      0    172    483    483      0      0    0.0  0.000    210   0.00   0.00   1.00   0.86   0.00   0.00   0.00   1.00   2.59  577.8   0.00      0    210    297.1   0.00   0.00 0.7708   0.011   0.006   0.004   0.003   0.002   0.002   0.001   0.001   0.000   0.000      0      0      0       0       0  10.100   46.616
 2025 110   181   179  32.180     2  0.597    270     12      0    176    497    497      0      0    0.0  0.000    215   0.00   0.00   1.00   0.86   0.00   0.00   0.00   1.00   2.57  562.3   0.00      0    215    297.1   0.00   0.00 0.7776   0.011   0.006   0.004   0.003   0.002   0.002   0.001   0.001   0.000   0.000      0      0      0       0       0  13.750   60.366
 2025 111   182   180  32.568     2  0.605    274     15      0    179    509    509      0      0    0.0  0.000    220   0.00   0.00   1.00   0.86   0.00   0.00   0.00   1.00   2.56  549.6   0.00      0    220    297.1   0.00   0.00 0.7828   0.011   0.006   0.004   0.003   0.002   0.002   0.001   0.001   0.000   0.000      0      0      0       0       0  10.750   71.116
 2025 112   183   181  32.954     2  0.615    279     18      0    182    521    521      0      0    0.0  0.000    224   0.00   0.00   1.00   0.86   0.00   0.00   0.00   1.00   2.55  536.3   0.00      0    224    297.1   0.00   0.00 0.7881   0.011   0.006   0.004   0.003   0.002   0.002   0.001   0.001   0.000   0.000      0      0      0       0       0  10.700   81.816
 2025 113   184   182  33.381     2  0.630    284     22      0    186    537    537      0      0    0.0  0.000    230   0.00   0.00   1.00   0.85   0.00   0.00   0.00   1.00   2.54  521.4   0.00      0    230    297.1   0.00   0.00 0.7939   0.011   0.006   0.004   0.003   0.002   0.002   0.001   0.001   0.000   0.000      0      0      0       0       0  11.800   93.616
 2025 114   185   183  33.704     2  0.638    288     25      0    188    547    547      0      0    0.0  0.000    234   0.00   0.00   1.00   0.85   0.00   0.00   0.00   1.00   2.54  509.8   0.00      0    234    297.1   0.00   0.00 0.7983   0.011   0.006   0.004   0.003   0.002   0.002   0.001   0.001   0.000   0.000      0      0      0       0       0   8.950  102.566
 2025 115   186   184  34.009     2  0.645    291     27      0    190    555    555      0      0    0.0  0.000    237   0.00   0.00   1.00   0.84   0.00   0.00   0.00   1.00   2.54  498.6   0.00      0    237    297.1   0.00   0.00 0.8024   0.011   0.006   0.004   0.003   0.002   0.002   0.001   0.001   0.000   0.000      0      0      0       0       0   8.450  111.016
 2025 116   187   185  34.354     2  0.662    297     33      0    195    573    573      0      0    0.0  0.000    243   0.00   0.00   1.00   0.82   0.00   0.00   0.00   1.00   2.53  486.1   0.00      0    243    297.1   0.00   0.00 0.8071   0.011   0.006   0.004   0.003   0.003   0.002   0.001   0.001   0.000   0.000      0      0      0       0       0   9.550  120.566
 2025 117   188   186  34.753     2  0.684    305     40      0    202    596    596      0      0    0.0  0.000    251   0.00   0.00   1.00   0.82   0.00   0.00   0.00   1.00   2.50  471.7   0.00      0    251    297.1   0.00   0.00 0.8125   0.011   0.006   0.004   0.003   0.003   0.002   0.001   0.001   0.000   0.000      0      0      0       0       0  11.050  131.616
 2025 118   189   187  35.217     2  0.691    313     48      0    209    620    620      0      0    0.0  0.000    259   0.00   0.00   1.00   0.83   0.00   0.00   0.00   1.00   2.48  454.9   0.00      0    259    297.1   0.00   0.00 0.8188   0.011   0.007   0.005   0.003   0.003   0.002   0.001   0.001   0.000   0.000      0      0      0       0       0  12.850  144.466
 2025 119   190   188  35.742     2  0.698    321     57      0    217    645    645      0      0    0.0  0.000    267   0.00   0.00   1.00   0.83   0.00   0.00   0.00   1.00   2.45  436.0   0.00      0    267    297.1   0.00   0.00 0.8260   0.011   0.007   0.005   0.003   0.003   0.002   0.002   0.001   0.000   0.000      0      0      0       0       0  14.550  159.016
 2025 120   191   189  36.284     2  0.705    329     66      0    225    669    669      0      0    0.0  0.000    275   0.00   0.00   1.00   0.83   0.00   0.00   0.00   1.00   2.43  416.4   0.00      0    275    297.1   0.00   0.00 0.8333   0.011   0.007   0.005   0.003   0.003   0.002   0.002   0.001   0.000   0.000      0      0      0       0       0  15.000  174.016
 2025 121   192   190  36.996     2  0.711    336     74      0    231    691    691      0      0    0.0  0.000    281   0.00   0.00   1.00   0.83   0.00   0.00   0.00   1.00   2.41  390.0   0.00      0    281    297.1   0.00   0.00 0.8430   0.011   0.007   0.005   0.004   0.003   0.002   0.002   0.001   0.000   0.000      0      0      0       0       0  19.709  193.725
 2025 122   193   191  37.646     2  0.722    344     86      0    240    720    720      0      0    0.0  0.000    290   0.00   0.00   1.00   0.82   0.00   0.00   0.00   1.00   2.38  380.0   0.00      0    290    297.1   0.00   0.00 0.8518   0.011   0.007   0.005   0.004   0.003   0.002   0.002   0.001   0.000   0.000      0      0      0       0       0  18.004  211.729
 2025 123   194   192  38.242     2  0.725    349     93      0    244    736    736      0      0    0.0  0.000    294   0.00   0.00   1.00   0.83   0.00   0.00   0.00   1.00   2.37  380.0   0.00      0    294    297.1   0.00   0.00 0.8599   0.012   0.007   0.005   0.004   0.003   0.002   0.002   0.001   0.000   0.000      0      0      0       0       0  16.500  228.229
 2025 124   195   193  38.655     2  0.734    354    102      0    249    756    756      0      0    0.0  0.000    300   0.00   0.00   1.00   0.81   0.00   0.00   0.00   1.00   2.36  380.0   0.00      0    300    297.1   0.00   0.00 0.8655   0.012   0.007   0.005   0.004   0.003   0.003   0.002   0.001   0.000   0.000      0      0      0       0       0  11.450  239.679
 2025 125   196   194  38.975     2  0.744    359    110      0    254    773    773      0      0    0.0  0.000    304   0.00   0.00   1.00   0.81   0.00   0.00   0.00   1.00   2.36  380.0   0.00      0    304    297.1   0.00   0.00 0.8699   0.012   0.007   0.005   0.004   0.003   0.003   0.002   0.001   0.000   0.000      0      0      0       0       0   8.850  248.529
 2025 126   197   195  39.338     2  0.765    367    124      0    263    804    804      0      0    0.0  0.000    312   0.00   0.00   1.00   0.79   0.00   0.00   0.00   1.00   2.35  380.0   0.00      0    312    297.1   0.00   0.00 0.8748   0.012   0.008   0.006   0.004   0.003   0.003   0.002   0.001   0.000   0.000      0      0      0       0       0  10.050  258.579
 2025 127   198   196  39.710     2  0.773    375    140      0    272    835    835      0      0    0.0  0.000    321   0.00   0.00   1.00   0.79   0.00   0.00   0.00   1.00   2.33  380.0   0.00      0    321    297.1   0.00   0.00 0.8799   0.012   0.008   0.006   0.004   0.003   0.003   0.002   0.001   0.000   0.000      0      0      0       0       0  10.300  268.879
 2025 128   199   197  40.132     2  0.777    382    153      0    280    862    862      0      0    0.0  0.000    327   0.00   0.00   1.00   0.78   0.00   0.00   0.00   1.00   2.32  380.0   0.00      0    327    297.1   0.00   0.00 0.8856   0.012   0.008   0.006   0.004   0.004   0.003   0.002   0.002   0.001   0.000      0      0      0       0       0  11.700  280.579
 2025 129   200   198  40.513     2  0.793    392    175      0    293    904    904      0      0    0.0  0.000    337   0.00   0.00   1.00   0.77   0.00   0.00   0.00   1.00   2.29  380.0   0.00      0    337    297.1   0.00   0.00 0.8908   0.012   0.008   0.006   0.004   0.004   0.003   0.002   0.002   0.001   0.000      0      0      0       0       0  10.550  291.129
 2025 130   201   199  40.880     2  0.809    401    196      0    306    943    943      0      0    0.0  0.000    347   0.00   0.00   1.00   0.80   0.00   0.00   0.00   1.00   2.26  380.0   0.00      0    347    297.1   0.00   0.00 0.8958   0.012   0.008   0.006   0.005   0.004   0.003   0.002   0.002   0.001   0.000      0      0      0       0       0  10.150  301.279
 2025 131   202   200  41.340     2  0.826    410    217      0    318    982    982      0      0    0.0  0.000    356   0.00   0.00   1.00   0.81   0.00   0.00   0.00   1.00   2.23  380.0   0.00      0    356    297.1   0.00   0.00 0.9020   0.013   0.009   0.007   0.005   0.004   0.003   0.002   0.002   0.001   0.000      0      0      0       0       0  12.750  314.029
 2025 132   203   201  41.844     2  0.839    418    237      0    329   1019   1019      0      0    0.0  0.000    364   0.00   0.00   1.00   0.82   0.00   0.00   0.00   1.00   2.21  380.0   0.00      0    364    297.1   0.00   0.00 0.9068   0.013   0.009   0.007   0.005   0.004   0.003   0.002   0.002   0.001   0.000      0      0      0       0       0  13.950  327.979
 2025 133   204   202  42.311     2  0.851    425    256      0    339   1052   1052      0      0    0.0  0.000    371   0.00   0.00   1.00   0.83   0.00   0.00   0.00   1.00   2.19  380.0   0.00      0    371    297.1   0.00   0.00 0.9113   0.013   0.009   0.007   0.005   0.004   0.003   0.002   0.002   0.001   0.000      0      0      0       0       0  12.950  340.929
 2025 134   205   203  42.793     2  0.864    432    277      0    349   1087   1087      0      0    0.0  0.000    378   0.00   0.00   1.00   0.83   0.00   0.00   0.00   1.00   2.17  380.0   0.00      0    378    297.1   0.00   0.00 0.9158   0.013   0.009   0.007   0.005   0.004   0.003   0.003   0.002   0.001   0.000      0      0      0       0       0  13.350  354.279
 2025 135   206   204  43.449     3  0.850    432    308      0    355   1118   1118      0      0    0.0  0.000    378   0.00   0.00   1.00   0.83   0.00   0.00   0.00   1.00   2.18  380.0   0.00      0    378    297.1   0.00   0.00 0.9201   0.013   0.010   0.007   0.005   0.004   0.004   0.003   0.002   0.001   0.000      0      0      0       0       0  12.450    6.729
 2025 136   207   205  44.147     3  0.843    432    339      0    361   1149   1149      0      0    0.0  0.000    378   0.00   0.00   1.00   0.83   0.00   0.00   0.00   1.00   2.19  380.0   0.00      0    378    297.1   0.00   0.00 0.9237   0.014   0.010   0.008   0.005   0.004   0.004   0.003   0.002   0.001   0.000      0      0      0       0       0  10.470   17.198
 2025 137   208   206  44.920     3  0.836    432    373      0    368   1183   1183      0      0    0.0  0.000    378   0.00   0.00   1.00   0.82   0.00   0.00   0.00   1.00   2.19  380.0   0.00      0    378    297.1   0.00   0.00 0.9277   0.014   0.010   0.008   0.006   0.005   0.004   0.003   0.002   0.001   0.000      0      0      0       0       0  11.600   28.798
 2025 138   209   207  45.767     3  0.828    432    407      0    374   1217   1217      0      0    0.0  0.000    378   0.00   0.00   1.00   0.80   0.00   0.00   0.00   1.00   2.20  380.0   0.00      0    378    297.1   0.00   0.00 0.9320   0.014   0.010   0.008   0.006   0.005   0.004   0.003   0.002   0.001   0.000      0      0      0       0       0  12.700   41.498
 2025 139   210   208  46.577     3  0.821    432    449      0    383   1259   1259      0      0    0.0  0.000    378   0.00   0.00   1.00   0.79   0.00   0.00   0.00   1.00   2.20  380.0   0.00      0    378    297.1   0.00   0.00 0.9362   0.014   0.010   0.008   0.006   0.005   0.004   0.003   0.002   0.001   0.000      0      0      0       0       0  12.150   53.648
[...]
 2025 169   240   238  73.178     5  4.737   2481   6208   2352   2597  11115  13467  18989  18989   12.4  0.175   2427   0.65   1.00   1.39   0.00   0.00   0.00   0.00   1.00   1.41  488.1   0.00      0   2427    297.1   0.00   0.00 1.1043   0.173   0.072   0.038   0.023   0.020   0.016   0.014   0.012   0.011   0.003      0      0      0       0       0  19.876  103.279
 2025 170   241   239  73.802     5  4.663   2481   6038   2624   2574  10945  13569  18989  18989   13.8  0.193   2427   0.64   1.00   1.24   0.00   0.00   0.00   0.00   1.00   1.28  488.1   0.00      0   2427    297.1   0.00   0.00 1.1089   0.171   0.071   0.037   0.023   0.019   0.016   0.014   0.012   0.011   0.004      0      0      0       0       0  20.296  123.575
 2025 171   242   240  74.411     5  4.573   2481   5856   2920   2551  10763  13683  18989  18989   15.4  0.213   2427   0.63   1.00   1.00   0.00   0.00   0.00   0.00   1.00   1.17  488.1   0.00      0   2427    297.1   0.00   0.00 1.1134   0.169   0.070   0.037   0.023   0.019   0.016   0.013   0.012   0.011   0.004      0      0      0       0       0  19.797  143.372
 2025 172   243   241  75.020     5  4.471   2481   5715   3166   2527  10623  13789  18989  18989   16.7  0.230   2427   0.63   1.00   1.63   0.00   0.00   0.00   0.00   1.00   1.04  488.1   0.00      0   2427    297.1   0.00   0.00 1.1179   0.168   0.070   0.037   0.023   0.019   0.016   0.013   0.012   0.011   0.004      0      0      0       0       0  19.775  163.147
 2025 173   244   242  75.648     5  4.350   2481   5626   3350   2503  10534  13884  18989  18989   17.6  0.241   2427   0.62   1.00   2.55   0.00   0.00   0.00   0.00   1.00   0.91  488.1   0.00      0   2427    297.1   0.00   0.00 1.1226   0.166   0.069   0.036   0.023   0.019   0.016   0.013   0.012   0.011   0.004      0      0      0       0       0  20.410  183.557
 2025 174   245   243  76.321     5  4.128   2481   5626   3435   2478  10534  13969  18989  18989   18.1  0.246   2427   0.61   1.00   1.43   0.00   0.00   0.00   0.00   1.00   0.86  488.1   0.00      0   2427    297.1   0.00   0.00 1.1276   0.164   0.068   0.036   0.022   0.019   0.016   0.013   0.012   0.011   0.004      0      0      0       0       0  21.859  205.417
 2025 175   246   244  76.941     5  3.971   2481   5626   3547   2453  10534  14080  18989  18989   18.7  0.252   2427   0.60   1.00   1.00   0.00   0.00   0.00   0.00   1.00   0.79  488.1   0.00      0   2427    297.1   0.00   0.00 1.1322   0.163   0.068   0.036   0.022   0.019   0.015   0.013   0.012   0.010   0.004      0      0      0       0       0  20.160  225.576
 2025 176   247   245  77.618     5  3.812   2481   5626   3638   2428  10534  14171  18989  18989   19.2  0.257   2427   0.60   1.00   2.22   0.00   0.00   0.00   0.00   1.00   0.73  488.1   0.00      0   2427    297.1   0.00   0.00 1.1373   0.161   0.067   0.035   0.022   0.018   0.015   0.013   0.012   0.010   0.003      0      0      0       0       0  22.000  247.576
 2025 177   248   246  78.315     5  3.532   2481   5626   3710   2404  10534  14243  18989  18989   19.5  0.260   2427   0.59   1.00   1.73   0.00   0.00   0.00   0.00   1.00   0.69  488.1   0.00      0   2427    297.1   0.00   0.00 1.1425   0.159   0.066   0.035   0.022   0.018   0.015   0.013   0.011   0.010   0.003      0      0      0       0       0  22.676  270.252
 2025 178   249   247  78.943     5  3.287   2481   5626   3806   2380  10534  14339  18989  18989   20.0  0.265   2427   0.45   1.00   1.00   0.00   0.00   0.00   0.00   1.00   0.63  488.1   0.00      0   2427    297.1   0.00   0.00 1.1471   0.158   0.066   0.034   0.021   0.018   0.015   0.013   0.011   0.010   0.003      0      0      0       0       0  20.400  290.652
 2025 179   250   248  79.636     5  3.108   2481   5626   3901   2356  10534  14435  18989  18989   20.5  0.270   2427   0.54   1.00   1.36   0.00   0.00   0.00   0.00   1.00   0.58  488.1   0.00      0   2427    297.1   0.00   0.00 1.1523   0.156   0.065   0.034   0.021   0.018   0.015   0.012   0.011   0.010   0.003      0      0      0       0       0  22.511  313.162
 2025 180   251   249  80.329     5  2.875   2481   5626   3979   2333  10534  14513  18989  18989   21.0  0.274   2427   0.57   1.00   2.45   0.00   0.00   0.00   0.00   1.00   0.54  488.1   0.00      0   2427    297.1   0.00   0.00 1.1574   0.155   0.064   0.034   0.021   0.018   0.015   0.012   0.011   0.010   0.003      0      0      0       0       0  22.525  335.688
 2025 181   252   250  81.081     5  2.446   2481   5626   4045   2309  10534  14579  18989  18989   21.3  0.277   2427   0.56   1.00   2.36   0.00   0.00   0.00   0.00   1.00   0.51  488.1   0.00      0   2427    297.1   0.00   0.00 1.1630   0.153   0.064   0.033   0.021   0.017   0.015   0.012   0.011   0.010   0.003      0      0      0       0       0  24.457  360.144
 2025 182   253   251  81.796     5  1.966   2481   5626   4111   2286  10534  14644  18989  18989   21.6  0.281   2427   0.43   1.00   2.66   0.00   0.00   0.00   0.00   1.00   0.48  488.1   0.00      0   2427    297.1   0.00   0.00 1.1683   0.152   0.063   0.033   0.021   0.017   0.014   0.012   0.011   0.010   0.003      0      0      0       0       0  23.219  383.364
 2025 183   254   252  82.515     5  1.418   2481   5626   4155   2263  10534  14689  18989  18989   21.9  0.283   2427   0.54   1.00   3.04   0.00   0.00   0.00   0.00   1.00   0.46  488.1   0.00      0   2427    297.1   0.00   0.00 1.1737   0.150   0.062   0.033   0.020   0.017   0.014   0.012   0.011   0.010   0.003      0      0      0       0       0  23.360  406.724
 2025 184   255   253  83.185     5  0.749   2481   5626   4190   2241  10534  14724  18989  18989   22.1  0.285   2427   0.53   1.00   1.00   0.00   0.00   0.00   0.00   1.00   0.45  488.1   0.00      0   2427    297.1   0.00   0.00 1.1787   0.149   0.062   0.032   0.020   0.017   0.014   0.012   0.011   0.010   0.003      0      0      0       0       0  21.800  428.523
 2025 185   256   254  83.849     5  0.443   2481   5626   4217   2218  10534  14750  18989  18989   22.2  0.286   2427   0.53   1.00   1.01   0.00   0.00   0.00   0.00   1.00   0.43  488.1   0.00      0   2427    297.1   0.00   0.00 1.1836   0.147   0.061   0.032   0.020   0.017   0.014   0.012   0.011   0.009   0.003      0      0      0       0       0  21.556  450.079
 2025 186   257   255  84.476     5  0.127   2481   5626   4225   2196  10534  14759  18989  18989   22.3  0.286   2427   0.52   1.00   1.82   0.00   0.00   0.00   0.00   1.00   0.43  488.1   0.00      0   2427    297.1   0.00   0.00 1.1883   0.146   0.061   0.032   0.020   0.017   0.014   0.012   0.010   0.009   0.003      0      0      0       0       0  20.377  470.456
 2025 187   258   256  85.121     5  0.000   2481   5627   4225   2174  10534  14759  18989  18989   22.3  0.286   2427   0.51   1.00   1.00   0.00   0.00   0.00   0.00   1.00   0.43  488.1   0.00      0   2427    297.1   0.00   0.00 1.1931   0.144   0.060   0.032   0.020   0.016   0.014   0.011   0.010   0.009   0.003      0      0      0       0       0  20.976  491.432
 2025 188   259   257  85.713     5  0.000   2481   5627   4225   2152  10534  14759  18989  18989   22.3  0.286   2427   0.51   1.00   1.00   0.00   0.00   0.00   0.00   1.00   0.43  488.1   0.00      0   2427    297.1   0.00   0.00 1.1975   0.143   0.059   0.031   0.019   0.016   0.014   0.011   0.010   0.009   0.003      0      0      0       0       0  19.250  510.682
 2025 189   260   258  86.186     5  0.000   2481   5627   4225   2131  10535  14760  18989  18989   22.3  0.286   2427   0.48   1.00   1.00   0.00   0.00   0.00   0.00   1.00   0.43  488.1   0.00      0   2427    297.1   0.00   0.00 1.2010   0.141   0.059   0.031   0.019   0.016   0.013   0.011   0.010   0.009   0.003      0      0      0       0       0  15.350  526.032
 2025 190   261   259  86.647     5  0.000   2481   5628   4225   2109  10535  14760  18989  18989   22.3  0.286   2427   0.48   1.00   1.00   0.00   0.00   0.00   0.00   1.00   0.43  488.1   0.00      0   2427    297.1   0.00   0.00 1.2044   0.140   0.058   0.031   0.019   0.016   0.013   0.011   0.010   0.009   0.003      0      0      0       0       0  15.000  541.032
 2025 191   262   260  87.212     5  0.000   2481   5628   4225   2088  10535  14760  18989  18989   22.3  0.286   2427   0.48   1.00   1.00   0.00   0.00   0.00   0.00   1.00   0.43  488.1   0.00      0   2427    297.1   0.00   0.00 1.2086   0.139   0.058   0.030   0.019   0.016   0.013   0.011   0.010   0.009   0.003      0      0      0       0       0  18.353  559.385
 2025 192   263   261  87.823     5  0.000   2481   5628   4225   2068  10536  14761  18989  18989   22.3  0.286   2427   0.48   1.00   1.00   0.00   0.00   0.00   0.00   1.00   0.43  488.1   0.00      0   2427    297.1   0.00   0.00 1.2131   0.137   0.057   0.030   0.019   0.016   0.013   0.011   0.010   0.009   0.003      0      0      0       0       0  19.851  579.236
 2025 193   264   262  88.421     5  0.000   2481   5629   4225   2047  10536  14761  18989  18989   22.3  0.286   2427   0.48   1.00   1.00   0.00   0.00   0.00   0.00   1.00   0.43  488.1   0.00      0   2427    297.1   0.00   0.00 1.2176   0.136   0.056   0.030   0.018   0.015   0.013   0.011   0.010   0.009   0.003      0      0      0       0       0  19.444  598.680
 2025 194   265   263  89.049     5  0.000   2481   5629   4225   2026  10537  14762  18989  18989   22.3  0.286   2427   0.47   1.00   1.41   0.00   0.00   0.00   0.00   1.00   0.43  488.1   0.00      0   2427    297.1   0.00   0.00 1.2223   0.134   0.056   0.029   0.018   0.015   0.013   0.011   0.010   0.009   0.003      0      0      0       0       0  20.422  619.102
 2025 195   266   264  89.643     5  0.000   2481   5630   4225   2006  10537  14762  18989  18989   22.3  0.286   2427   0.11   0.76   1.00   0.00   0.00   0.00   0.00   1.00   0.43  488.1   0.00      0   2427    297.1   0.00   0.00 1.2267   0.133   0.055   0.029   0.018   0.015   0.013   0.011   0.010   0.009   0.003      0      0      0       0       0  19.299  638.400
 2025 196   267   265  90.000     6  0.000   2481   5630   4225   1986  10537  14762  18989  18989   22.3  0.286   2427   0.11   0.76   1.00   0.00   0.00   0.00   0.00   1.00   0.43  488.1   0.00      0   2427    297.1   0.00   0.00 1.2267   0.132   0.055   0.029   0.018   0.015   0.013   0.010   0.009   0.008   0.003      0      0      0       0       0  20.441    8.841
 2025 197   268   266  90.000     7  0.000   2481   5630   4225   1986  10537  14762  18989  18989   22.3  0.286   2427   0.11   0.76   1.00   0.00   0.00   0.00   0.00   1.00   0.43  488.1   0.00      0   2427    297.1   0.00   0.00 1.2267   0.132   0.055   0.029   0.018   0.015   0.013   0.010   0.009   0.008   0.003      0      0      0       0       0  16.800    9.450
 2025 198   269   267  90.000     7  0.000   2481   5630   4225   1986  10537  14762  18989  18989   22.3  0.286   2427   0.11   0.76   1.00   0.00   0.00   0.00   0.00   1.00   0.43  488.1   0.00      0   2427    297.1   0.00   0.00 1.2267   0.132   0.055   0.029   0.018   0.015   0.013   0.010   0.009   0.008   0.003      0      0      0       0       0  16.800    9.450
 2025 199   270   268  90.000     7  0.000   2481   5630   4225   1986  10537  14762  18989  18989   22.3  0.286   2427   0.11   0.76   1.00   0.00   0.00   0.00   0.00   1.00   0.43  488.1   0.00      0   2427    297.1   0.00   0.00 1.2267   0.132   0.055   0.029   0.018   0.015   0.013   0.010   0.009   0.008   0.003      0      0      0       0       0  16.800    9.450
 2025 200   271   269  90.000     7  0.000   2481   5630   4225   1986  10537  14762  18989  18989   22.3  0.286   2427   0.11   0.76   1.00   0.00   0.00   0.00   0.00   1.00   0.43  488.1   0.00      0   2427    297.1   0.00   0.00 1.2267   0.132   0.055   0.029   0.018   0.015   0.013   0.010   0.009   0.008   0.003      0      0      0       0       0  16.800    9.450
 2025 201   272   270  90.000     7  0.000   2481   5630   4225   1986  10537  14762  18989  18989   22.3  0.286   2427   0.11   0.76   1.00   0.00   0.00   0.00   0.00   1.00   0.43  488.1   0.00      0   2427    297.1   0.00   0.00 1.2267   0.132   0.055   0.029   0.018   0.015   0.013   0.010   0.009   0.008   0.003      0      0      0       0       0  16.800    9.450
 2025 202   273   271  90.000     7  0.000   2481   5630   4225   1986  10537  14762  18989  18989   22.3  0.286   2427   0.11   0.76   1.00   0.00   0.00   0.00   0.00   1.00   0.43  488.1   0.00      0   2427    297.1   0.00   0.00 1.2267   0.132   0.055   0.029   0.018   0.015   0.013   0.010   0.009   0.008   0.003      0      0      0       0       0  16.800    9.450
 2025 203   274   272  90.000     7  0.000   2481   5630   4225   1986  10537  14762  18989  18989   22.3  0.286   2427   0.11   0.76   1.00   0.00   0.00   0.00   0.00   1.00   0.43  488.1   0.00      0   2427    297.1   0.00   0.00 1.2267   0.132   0.055   0.029   0.018   0.015   0.013   0.010   0.009   0.008   0.003      0      0      0       0       0  16.800    9.450
 2025 204   275   273  90.000     7  0.000   2481   5630   4225   1986  10537  14762  18989  18989   22.3  0.286   2427   0.11   0.76   1.00   0.00   0.00   0.00   0.00   1.00   0.43  488.1   0.00      0   2427    297.1   0.00   0.00 1.2267   0.132   0.055   0.029   0.018   0.015   0.013   0.010   0.009   0.008   0.003      0      0      0       0       0  16.800    9.450
 2025 205   276   274  90.000     7  0.000   2481   5630   4225   1986  10537  14762  18989  18989   22.3  0.286   2427   0.11   0.76   1.00   0.00   0.00   0.00   0.00   1.00   0.43  488.1   0.00      0   2427    297.1   0.00   0.00 1.2267   0.132   0.055   0.029   0.018   0.015   0.013   0.010   0.009   0.008   0.003      0      0      0       0       0  16.800    9.450
 2025 206   277   275  90.000     7  0.000   2481   5630   4225   1986  10537  14762  18989  18989   22.3  0.286   2427   0.11   0.76   1.00   0.00   0.00   0.00   0.00   1.00   0.43  488.1   0.00      0   2427    297.1   0.00   0.00 1.2267   0.132   0.055   0.029   0.018   0.015   0.013   0.010   0.009   0.008   0.003      0      0      0       0       0  16.800    9.450
 2025 207   278   276  90.000     7  0.000   2481   5630   4225   1986  10537  14762  18989  18989   22.3  0.286   2427   0.11   0.76   1.00   0.00   0.00   0.00   0.00   1.00   0.43  488.1   0.00      0   2427    297.1   0.00   0.00 1.2267   0.132   0.055   0.029   0.018   0.015   0.013   0.010   0.009   0.008   0.003      0      0      0       0       0  16.800    9.450
 2025 208   279   277  90.000     7  0.000   2481   5630   4225   1986  10537  14762  18989  18989   22.3  0.286   2427   0.11   0.76   1.00   0.00   0.00   0.00   0.00   1.00   0.43  488.1   0.00      0   2427    297.1   0.00   0.00 1.2267   0.132   0.055   0.029   0.018   0.015   0.013   0.010   0.009   0.008   0.003      0      0      0       0       0  16.800    9.450
 2025 209   280   278  90.000     7  0.000   2481   5630   4225   1986  10537  14762  18989  18989   22.3  0.286   2427   0.11   0.76   1.00   0.00   0.00   0.00   0.00   1.00   0.43  488.1   0.00      0   2427    297.1   0.00   0.00 1.2267   0.132   0.055   0.029   0.018   0.015   0.013   0.010   0.009   0.008   0.003      0      0      0       0       0  16.800    9.450
 2025 210   281   279  90.000     7  0.000   2481   5630   4225   1986  10537  14762  18989  18989   22.3  0.286   2427   0.11   0.76   1.00   0.00   0.00   0.00   0.00   1.00   0.43  488.1   0.00      0   2427    297.1   0.00   0.00 1.2267   0.132   0.055   0.029   0.018   0.015   0.013   0.010   0.009   0.008   0.003      0      0      0       0       0  16.800    9.450
 2025 211   282   280  90.000     7  0.000   2481   5630   4225   1986  10537  14762  18989  18989   22.3  0.286   2427   0.11   0.76   1.00   0.00   0.00   0.00   0.00   1.00   0.43  488.1   0.00      0   2427    297.1   0.00   0.00 1.2267   0.132   0.055   0.029   0.018   0.015   0.013   0.010   0.009   0.008   0.003      0      0      0       0       0  16.800    9.450
 2025 212   283   281  90.000     7  0.000   2481   5630   4225   1986  10537  14762  18989  18989   22.3  0.286   2427   0.11   0.76   1.00   0.00   0.00   0.00   0.00   1.00   0.43  488.1   0.00      0   2427    297.1   0.00   0.00 1.2267   0.132   0.055   0.029   0.018   0.015   0.013   0.010   0.009   0.008   0.003      0      0      0       0       0  16.800    9.450
 2025 213   284   282  90.000     7  0.000   2481   5630   4225   1986  10537  14762  18989  18989   22.3  0.286   2427   0.11   0.76   1.00   0.00   0.00   0.00   0.00   1.00   0.43  488.1   0.00      0   2427    297.1   0.00   0.00 1.2267   0.132   0.055   0.029   0.018   0.015   0.013   0.010   0.009   0.008   0.003      0      0      0       0       0  16.800    9.450
 2025 214   285   283  90.000     7  0.000   2481   5630   4225   1986  10537  14762  18989  18989   22.3  0.286   2427   0.11   0.76   1.00   0.00   0.00   0.00   0.00   1.00   0.43  488.1   0.00      0   2427    297.1   0.00   0.00 1.2267   0.132   0.055   0.029   0.018   0.015   0.013   0.010   0.009   0.008   0.003      0      0      0       0       0  16.800    9.450
 2025 215   286   284  90.000     7  0.000   2481   5630   4225   1986  10537  14762  18989  18989   22.3  0.286   2427   0.11   0.76   1.00   0.00   0.00   0.00   0.00   1.00   0.43  488.1   0.00      0   2427    297.1   0.00   0.00 1.2267   0.132   0.055   0.029   0.018   0.015   0.013   0.010   0.009   0.008   0.003      0      0      0       0       0  16.800    9.450
 2025 216   287   285  90.000     7  0.000   2481   5630   4225   1986  10537  14762  18989  18989   22.3  0.286   2427   0.11   0.76   1.00   0.00   0.00   0.00   0.00   1.00   0.43  488.1   0.00      0   2427    297.1   0.00   0.00 1.2267   0.132   0.055   0.029   0.018   0.015   0.013   0.010   0.009   0.008   0.003      0      0      0       0       0  16.800    9.450
 2025 217   288   286  90.000     7  0.000   2481   5630   4225   1986  10537  14762  18989  18989   22.3  0.286   2427   0.11   0.76   1.00   0.00   0.00   0.00   0.00   1.00   0.43  488.1   0.00      0   2427    297.1   0.00   0.00 1.2267   0.132   0.055   0.029   0.018   0.015   0.013   0.010   0.009   0.008   0.003      0      0      0       0       0  16.800    9.450
 2025 218   289   287  90.000     7  0.000   2481   5630   4225   1986  10537  14762  18989  18989   22.3  0.286   2427   0.11   0.76   1.00   0.00   0.00   0.00   0.00   1.00   0.43  488.1   0.00      0   2427    297.1   0.00   0.00 1.2267   0.132   0.055   0.029   0.018   0.015   0.013   0.010   0.009   0.008   0.003      0      0      0       0       0  16.800    9.450
 2025 219   290   288  90.000     7  0.000   2481   5630   4225   1986  10537  14762  18989  18989   22.3  0.286   2427   0.11   0.76   1.00   0.00   0.00   0.00   0.00   1.00   0.43  488.1   0.00      0   2427    297.1   0.00   0.00 1.2267   0.132   0.055   0.029   0.018   0.015   0.013   0.010   0.009   0.008   0.003      0      0      0       0       0  16.800    9.450
 2025 220   291   289  90.000     7  0.000   2481   5630   4225   1986  10537  14762  18989  18989   22.3  0.286   2427   0.11   0.76   1.00   0.00   0.00   0.00   0.00   1.00   0.43  488.1   0.00      0   2427    297.1   0.00   0.00 1.2267   0.132   0.055   0.029   0.018   0.015   0.013   0.010   0.009   0.008   0.003      0      0      0       0       0  16.800    9.450
 2025 221   292   290  90.000     7  0.000   2481   5630   4225   1986  10537  14762  18989  18989   22.3  0.286   2427   0.11   0.76   1.00   0.00   0.00   0.00   0.00   1.00   0.43  488.1   0.00      0   2427    297.1   0.00   0.00 1.2267   0.132   0.055   0.029   0.018   0.015   0.013   0.010   0.009   0.008   0.003      0      0      0       0       0  16.800    9.450
