*GROWTH ASPECTS OUTPUT FILE

*DSSAT Cropping System Model Ver. 4.8.2.000 -release  JAN 12, 2026 12:42:39

*RUN   1        : No N                      WHAPS048 HWOC2501    1
 MODEL          : WHAPS048 - Wheat
 EXPERIMENT     : HWOC2501 WH
 DATA PATH      : C:/DSSAT48/Wheat/
 TREATMENT  1   : No N                      WHAPS048
  
!                                                                                                                                                                                                                                             Root Dens. (cm/cm3) by soil depth (cm):
!                                                                                                                                                                                                                                             0-5    5-15   15-30   30-45   45-60   60-90  90-120 120-150 150-180 180-210
@YEAR DOY   DAS   DAP    DCCD  GSTD   LAID   LWAD   SWAD   GWAD   RWAD   VWAD   CWAD   G#AD   G#AD2  GWGD   HIAD   SHAD   WSPD   WSGD   SLFT   NSTD   EWSD  PST1A  PST2A   KSTD   LN%D   TPSM   HIPD   PWDD   PWTD     SLAD   CHTD   CWID   RDPD    RL1D    RL2D    RL3D    RL4D    RL5D    RL6D    RL7D    RL8D    RL9D   RL10D   CDAD   LDAD   SDAD   SNW0C   SNW1C    DTTD   SUMDTT
 2024 297     2     0   0.000     8  0.000      0      0      0      0      0      0      0      0    0.0  0.000      0   0.00   0.00   0.00   0.00   0.00   0.00   0.00   1.00   0.00    0.0   0.00      0      0      0.0   0.00   0.00 0.0030   0.000   0.000   0.000   0.000   0.000   0.000   0.000   0.000   0.000   0.000      0      0      0       0       0   9.450    0.000
 2024 298     3     1   0.000     8  0.000      0      0      0      0      0      0      0      0    0.0  0.000      0   0.00   0.00   0.00   0.00   0.00   0.00   0.00   1.00   0.00    0.0   0.00      0      0      0.0   0.00   0.00 0.0030   0.000   0.000   0.000   0.000   0.000   0.000   0.000   0.000   0.000   0.000      0      0      0       0       0  10.500   10.500
 2024 299     4     2   2.739     9  0.000      0      0      0      0      0      0      0      0    0.0  0.000      0   0.00   0.00   0.00   0.00   0.00   0.00   0.00   1.00   0.00    0.0   0.00      0      0      0.0   0.00   0.00 0.0030   0.000   0.000   0.000   0.000   0.000   0.000   0.000   0.000   0.000   0.000      0      0      0       0       0  11.450   11.450
 2024 300     5     3   5.311     9  0.000      0      0      0      0      0      0      0      0    0.0  0.000      0   0.00   0.00   0.00   0.00   0.00   0.00   0.00   1.00   0.00    0.0   0.00      0      0      0.0   0.00   0.00 0.0144   0.000   0.000   0.000   0.000   0.000   0.000   0.000   0.000   0.000   0.000      0      0      0       0       0  10.750   22.200
 2024 301     6     4   8.086     9  0.000      0      0      0      0      0      0      0      0    0.0  0.000      0   0.00   0.00   0.00   0.00   0.00   0.00   0.00   1.00   0.00    0.0   0.00      0      0      0.0   0.00   0.00 0.0252   0.000   0.000   0.000   0.000   0.000   0.000   0.000   0.000   0.000   0.000      0      0      0       0       0  11.600   33.800
 2024 302     7     5  10.233     1  0.017     14      0      0     23     15     15      0      0    0.0  0.000      1   0.00   0.00   1.00   0.00   0.00   0.00   0.00   1.00   3.87  380.0   0.00      0      1    299.3   0.00   0.00 0.0646   0.037   0.004   0.000   0.000   0.000   0.000   0.000   0.000   0.000   0.000      0      0      0       0       0  12.650    4.650
 2024 303     8     6  10.233     1  0.019     23      0      0     23     25     25      0      0    0.0  0.000      1   0.00   0.00   1.00   0.00   0.00   0.00   0.00   1.00   3.88  380.0   0.00      0      1    299.3   0.00   0.00 0.0939   0.036   0.004   0.000   0.000   0.000   0.000   0.000   0.000   0.000   0.000      0      0      0       0       0  13.300    4.650
 2024 304     9     7  10.233     1  0.021     33      0      0     24     35     35      0      0    0.0  0.000      2   0.00   0.00   1.00   0.00   0.00   0.00   0.00   1.00   4.46  380.0   0.00      0      2    299.3   0.00   0.00 0.1194   0.036   0.004   0.000   0.000   0.000   0.000   0.000   0.000   0.000   0.000      0      0      0       0       0  11.600    4.650
 2024 305    10     8  10.233     1  0.022     43      0      0     24     46     46      0      0    0.0  0.000      2   0.00   0.00   1.00   0.00   0.00   0.00   0.00   1.00   4.88  380.0   0.00      0      2    299.3   0.00   0.00 0.1416   0.036   0.004   0.000   0.000   0.000   0.000   0.000   0.000   0.000   0.000      0      0      0       0       0  10.100    4.650
 2024 306    11     9  10.233     1  0.023     49      0      0     24     52     52      0      0    0.0  0.000      3   0.00   0.00   1.00   0.00   0.00   0.00   0.00   1.00   5.52  380.0   0.00      0      3    299.3   0.00   0.00 0.1578   0.035   0.004   0.000   0.000   0.000   0.000   0.000   0.000   0.000   0.000      0      0      0       0       0   7.350    4.650
 2024 307    12    10  10.235     1  0.024     56      0      0     24     60     60      0      0    0.0  0.000      3   0.00   0.00   1.00   0.00   0.00   0.00   0.00   1.00   5.54  380.0   0.00      0      3    299.3   0.00   0.00 0.1683   0.035   0.004   0.000   0.000   0.000   0.000   0.000   0.000   0.000   0.000      0      0      0       0       0   7.500    4.703
 2024 308    13    11  10.244     1  0.027     58      0      0     24     62     62      0      0    0.0  0.000      4   0.00   0.00   1.00   0.00   0.00   0.00   0.00   1.00   6.15  380.0   0.00      0      4    299.3   0.00   0.00 0.1781   0.035   0.004   0.000   0.000   0.000   0.000   0.000   0.000   0.000   0.000      0      0      0       0       0   6.950    4.884
 2024 309    14    12  10.259     1  0.029     59      0      0     25     64     64      0      0    0.0  0.000      5   0.00   0.00   1.00   0.00   0.00   0.00   0.00   1.00   6.24  380.0   0.00      0      5    299.2   0.00   0.00 0.1868   0.034   0.004   0.000   0.000   0.000   0.000   0.000   0.000   0.000   0.000      0      0      0       0       0   6.200    5.172
 2024 310    15    13  10.272     1  0.031     59      0      0     25     65     65      0      0    0.0  0.000      5   0.00   0.00   1.00   0.00   0.00   0.00   0.00   1.00   6.29  380.0   0.00      0      5    299.2   0.00   0.00 0.1920   0.034   0.004   0.000   0.000   0.000   0.000   0.000   0.000   0.000   0.000      0      0      0       0       0   3.700    5.434
 2024 311    16    14  10.304     1  0.032     60      0      0     25     66     66      0      0    0.0  0.000      6   0.00   0.00   1.00   0.00   0.00   0.00   0.00   1.00   6.29  380.0   0.00      0      6    299.1   0.00   0.00 0.2020   0.034   0.004   0.000   0.000   0.000   0.000   0.000   0.000   0.000   0.000      0      0      0       0       0   7.150    6.075
 2024 312    17    15  10.335     1  0.033     60      0      0     25     67     67      0      0    0.0  0.000      6   0.00   0.00   1.00   0.00   0.00   0.00   0.00   1.00   6.28  380.0   0.00      0      6    299.0   0.00   0.00 0.2100   0.034   0.004   0.000   0.000   0.000   0.000   0.000   0.000   0.000   0.000      0      0      0       0       0   5.700    6.707
 2024 313    18    16  10.366     1  0.034     61      0      0     25     67     67      0      0    0.0  0.000      6   0.00   0.00   1.00   0.00   0.00   0.00   0.00   1.00   6.28  380.0   0.00      0      6    298.9   0.00   0.00 0.2165   0.033   0.004   0.000   0.000   0.000   0.000   0.000   0.000   0.000   0.000      0      0      0       0       0   4.650    7.329
 2024 314    19    17  10.396     1  0.035     61      0      0     25     68     68      0      0    0.0  0.000      7   0.00   0.00   1.00   0.00   0.00   0.00   0.00   1.00   6.27  380.0   0.00      0      7    298.8   0.00   0.00 0.2218   0.033   0.004   0.000   0.000   0.000   0.000   0.000   0.000   0.000   0.000      0      0      0       0       0   3.750    7.922
 2024 315    20    18  10.436     1  0.037     61      0      0     26     69     69      0      0    0.0  0.000      7   0.00   0.00   1.00   0.00   0.00   0.00   0.00   1.00   6.27  380.0   0.00      0      7    298.7   0.00   0.00 0.2279   0.033   0.004   0.000   0.000   0.000   0.000   0.000   0.000   0.000   0.000      0      0      0       0       0   4.350    8.710
 2024 316    21    19  10.472     1  0.037     62      0      0     25     69     69      0      0    0.0  0.000      7   0.00   0.00   1.00   0.00   0.00   0.00   0.00   1.00   6.28  380.0   0.00      0      7    298.6   0.00   0.00 0.2329   0.032   0.004   0.000   0.000   0.000   0.000   0.000   0.000   0.000   0.000      0      0      0       0       0   3.560    9.443
 2024 317    22    20  10.511     1  0.039     62      0      0     26     70     70      0      0    0.0  0.000      8   0.00   0.00   1.00   0.00   0.00   0.00   0.00   1.00   6.25  380.0   0.00      0      8    298.5   0.00   0.00 0.2377   0.032   0.004   0.000   0.000   0.000   0.000   0.000   0.000   0.000   0.000      0      0      0       0       0   3.428   10.227
 2024 318    23    21  10.537     1  0.039     62      0      0     26     71     71      0      0    0.0  0.000      8   0.00   0.00   1.00   0.00   0.00   0.00   0.00   1.00   6.27  380.0   0.00      0      8    298.4   0.00   0.00 0.2406   0.032   0.004   0.000   0.000   0.000   0.000   0.000   0.000   0.000   0.000      0      0      0       0       0   2.076   10.741
 2024 319    24    22  10.571     1  0.040     63      0      0     26     71     71      0      0    0.0  0.000      8   0.00   0.00   1.00   0.00   0.00   0.00   0.00   1.00   6.26  380.0   0.00      0      8    298.3   0.00   0.00 0.2446   0.031   0.004   0.000   0.000   0.000   0.000   0.000   0.000   0.000   0.000      0      0      0       0       0   2.800   11.417
 2024 320    25    23  10.621     1  0.042     63      0      0     26     72     72      0      0    0.0  0.000      9   0.00   0.00   1.00   0.00   0.00   0.00   0.00   1.00   6.24  380.0   0.00      0      9    298.2   0.00   0.00 0.2505   0.031   0.004   0.000   0.000   0.000   0.000   0.000   0.000   0.000   0.000      0      0      0       0       0   4.250   12.416
 2024 321    26    24  10.665     1  0.044     64      0      0     26     74     74      0      0    0.0  0.000     10   0.00   0.00   1.00   0.00   0.00   0.00   0.00   1.00   6.21  380.0   0.00      0     10    298.1   0.00   0.00 0.2560   0.031   0.004   0.000   0.000   0.000   0.000   0.000   0.000   0.000   0.000      0      0      0       0       0   3.906   13.310
 2024 322    27    25  10.708     1  0.045     64      0      0     26     75     75      0      0    0.0  0.000     10   0.00   0.00   1.00   0.00   0.00   0.00   0.00   1.00   6.24  380.0   0.00      0     10    297.9   0.00   0.00 0.2614   0.030   0.004   0.000   0.000   0.000   0.000   0.000   0.000   0.000   0.000      0      0      0       0       0   3.819   14.160
 2024 323    28    26  10.753     1  0.046     65      0      0     26     75     75      0      0    0.0  0.000     10   0.00   0.00   1.00   0.00   0.00   0.00   0.00   1.00   6.23  380.0   0.00      0     10    297.8   0.00   0.00 0.2672   0.030   0.004   0.000   0.000   0.000   0.000   0.000   0.000   0.000   0.000      0      0      0       0       0   4.150   15.060
 2024 324    29    27  10.827     1  0.047     65      0      0     26     76     76      0      0    0.0  0.000     11   0.00   0.00   1.00   0.00   0.00   0.00   0.00   1.00   6.21  380.0   0.00      0     11    297.6   0.00   0.00 0.2771   0.030   0.004   0.000   0.000   0.000   0.000   0.000   0.000   0.000   0.000      0      0      0       0       0   7.050   16.547
 2024 325    30    28  10.863     1  0.049     66      0      0     26     77     77      0      0    0.0  0.000     11   0.00   0.00   1.00   0.00   0.00   0.00   0.00   1.00   6.21  380.0   0.00      0     11    297.5   0.00   0.00 0.2820   0.030   0.004   0.000   0.000   0.000   0.000   0.000   0.000   0.000   0.000      0      0      0       0       0   3.478   17.261
 2024 326    31    29  10.872     1  0.049     66      0      0     26     77     77      0      0    0.0  0.000     11   0.00   0.00   1.00   0.00   0.00   0.00   0.00   1.00   6.25  380.0   0.00      0     11    297.5   0.00   0.00 0.2832   0.029   0.004   0.000   0.000   0.000   0.000   0.000   0.000   0.000   0.000      0      0      0       0       0   0.865   17.433
 2024 327    32    30  10.874     1  0.049     66      0      0     26     77     77      0      0    0.0  0.000     11   0.00   0.00   1.00   0.00   0.00   0.00   0.00   1.00   6.25  380.0   0.00      0     11    297.5   0.00   0.00 0.2835   0.029   0.004   0.000   0.000   0.000   0.000   0.000   0.000   0.000   0.000      0      0      0       0       0   0.222   17.477
 2024 328    33    31  10.896     1  0.050     66      0      0     26     78     78      0      0    0.0  0.000     12   0.00   0.00   1.00   0.00   0.00   0.00   0.00   1.00   6.20  380.0   0.00      0     12    297.4   0.00   0.00 0.2868   0.029   0.004   0.000   0.000   0.000   0.000   0.000   0.000   0.000   0.000      0      0      0       0       0   2.328   17.916
 2024 329    34    32  10.953     1  0.053     67      0      0     27     80     80      0      0    0.0  0.000     13   0.00   0.00   1.00   0.00   0.00   0.00   0.00   1.00   6.15  380.0   0.00      0     13    297.3   0.00   0.00 0.2955   0.028   0.004   0.000   0.000   0.000   0.000   0.000   0.000   0.000   0.000      0      0      0       0       0   6.200   19.054
 2024 330    35    33  11.014     1  0.057     68      0      0     27     83     83      0      0    0.0  0.000     14   0.00   0.00   1.00   0.00   0.00   0.00   0.00   1.00   6.12  380.0   0.00      0     14    297.1   0.00   0.00 0.3052   0.028   0.004   0.000   0.000   0.000   0.000   0.000   0.000   0.000   0.000      0      0      0       0       0   6.900   20.286
 2024 331    36    34  11.070     1  0.060     69      0      0     28     84     84      0      0    0.0  0.000     15   0.00   0.00   1.00   0.00   0.00   0.00   0.00   1.00   6.15  380.0   0.00      0     15    297.0   0.00   0.00 0.3118   0.028   0.004   0.000   0.000   0.000   0.000   0.000   0.000   0.000   0.000      0      0      0       0       0   6.400   21.397
 2024 332    37    35  11.119     1  0.063     70      0      0     29     87     87      0      0    0.0  0.000     16   0.00   0.00   1.00   0.00   0.00   0.00   0.00   1.00   6.12  380.0   0.00      0     16    296.8   0.00   0.00 0.3178   0.028   0.004   0.000   0.000   0.000   0.000   0.000   0.000   0.000   0.000      0      0      0       0       0   5.800   22.376
 2024 333    38    36  11.160     1  0.065     71      0      0     29     88     88      0      0    0.0  0.000     17   0.00   0.00   1.00   0.00   0.00   0.00   0.00   1.00   6.14  380.0   0.00      0     17    296.7   0.00   0.00 0.3231   0.027   0.004   0.000   0.000   0.000   0.000   0.000   0.000   0.000   0.000      0      0      0       0       0   5.050   23.205
 2024 334    39    37  11.183     1  0.067     72      0      0     29     90     90      0      0    0.0  0.000     17   0.00   0.00   1.00   0.00   0.00   0.00   0.00   1.00   6.16  380.0   0.00      0     17    296.7   0.00   0.00 0.3260   0.027   0.004   0.000   0.000   0.000   0.000   0.000   0.000   0.000   0.000      0      0      0       0       0   2.834   23.657
 2024 335    40    38  11.202     1  0.069     73      0      0     31     91     91      0      0    0.0  0.000     18   0.00   0.00   1.00   0.00   0.00   0.00   0.00   1.00   6.15  380.0   0.00      0     18    296.6   0.00   0.00 0.3286   0.027   0.004   0.000   0.000   0.000   0.000   0.000   0.000   0.000   0.000      0      0      0       0       0   2.479   24.043
 2024 336    41    39  11.205     1  0.069     73      0      0     30     91     91      0      0    0.0  0.000     18   0.00   0.00   1.00   0.00   0.00   0.00   0.00   1.00   6.21  380.0   0.00      0     18    296.6   0.00   0.00 0.3290   0.027   0.004   0.000   0.000   0.000   0.000   0.000   0.000   0.000   0.000      0      0      0       0       0   0.358   24.097
 2024 337    42    40  11.224     1  0.071     73      0      0     30     92     92      0      0    0.0  0.000     19   0.00   0.00   1.00   0.00   0.00   0.00   0.00   1.00   6.17  380.0   0.00      0     19    296.5   0.00   0.00 0.3317   0.027   0.004   0.000   0.000   0.000   0.000   0.000   0.000   0.000   0.000      0      0      0       0       0   2.605   24.481
 2024 338    43    41  11.250     1  0.072     74      0      0     30     93     93      0      0    0.0  0.000     19   0.00   0.00   1.00   0.00   0.00   0.00   0.00   1.00   6.16  380.0   0.00      0     19    296.5   0.00   0.00 0.3354   0.026   0.004   0.000   0.000   0.000   0.000   0.000   0.000   0.000   0.000      0      0      0       0       0   3.600   24.998
 2024 339    44    42  11.263     1  0.073     74      0      0     31     94     94      0      0    0.0  0.000     19   0.00   0.00   1.00   0.00   0.00   0.00   0.00   1.00   6.18  380.0   0.00      0     19    296.4   0.00   0.00 0.3373   0.026   0.003   0.000   0.000   0.000   0.000   0.000   0.000   0.000   0.000      0      0      0       0       0   1.805   25.251
 2024 340    45    43  11.272     1  0.073     74      0      0     30     94     94      0      0    0.0  0.000     19   0.00   0.00   1.00   0.00   0.00   0.00   0.00   1.00   6.20  380.0   0.00      0     19    296.4   0.00   0.00 0.3387   0.026   0.003   0.000   0.000   0.000   0.000   0.000   0.000   0.000   0.000      0      0      0       0       0   1.383   25.440
 2024 341    46    44  11.301     1  0.075     74      0      0     30     95     95      0      0    0.0  0.000     20   0.00   0.00   1.00   0.00   0.00   0.00   0.00   1.00   6.16  380.0   0.00      0     20    296.3   0.00   0.00 0.3432   0.026   0.003   0.000   0.000   0.000   0.000   0.000   0.000   0.000   0.000      0      0      0       0       0   4.300   26.013
 2024 342    47    45  11.318     1  0.076     75      0      0     30     95     95      0      0    0.0  0.000     20   0.00   0.00   1.00   0.00   0.00   0.00   0.00   1.00   6.16  380.0   0.00      0     20    296.3   0.00   0.00 0.3459   0.025   0.003   0.000   0.000   0.000   0.000   0.000   0.000   0.000   0.000      0      0      0       0       0   2.600   26.352
 2024 343    48    46  11.336     1  0.077     75      0      0     31     96     96      0      0    0.0  0.000     21   0.00   0.00   1.00   0.00   0.00   0.00   0.00   1.00   6.15  380.0   0.00      0     21    296.2   0.00   0.00 0.3489   0.025   0.003   0.000   0.000   0.000   0.000   0.000   0.000   0.000   0.000      0      0      0       0       0   2.907   26.723
 2024 344    49    47  11.349     1  0.078     75      0      0     31     97     97      0      0    0.0  0.000     21   0.00   0.00   1.00   0.00   0.00   0.00   0.00   1.00   6.16  380.0   0.00      0     21    296.2   0.00   0.00 0.3510   0.025   0.003   0.000   0.000   0.000   0.000   0.000   0.000   0.000   0.000      0      0      0       0       0   2.009   26.973
 2024 345    50    48  11.358     1  0.078     75      0      0     30     97     97      0      0    0.0  0.000     21   0.00   0.00   1.00   0.00   0.00   0.00   0.00   1.00   6.18  380.0   0.00      0     21    296.2   0.00   0.00 0.3525   0.025   0.003   0.000   0.000   0.000   0.000   0.000   0.000   0.000   0.000      0      0      0       0       0   1.485   27.155
 2024 346    51    49  11.367     1  0.078     76      0      0     30     97     97      0      0    0.0  0.000     21   0.00   0.00   1.00   0.00   0.00   0.00   0.00   1.00   6.18  380.0   0.00      0     21    296.2   0.00   0.00 0.3540   0.024   0.003   0.000   0.000   0.000   0.000   0.000   0.000   0.000   0.000      0      0      0       0       0   1.474   27.332
 2024 347    52    50  11.372     1  0.078     76      0      0     30     97     97      0      0    0.0  0.000     21   0.00   0.00   1.00   0.00   0.00   0.00   0.00   1.00   6.19  380.0   0.00      0     21    296.2   0.00   0.00 0.3551   0.024   0.003   0.000   0.000   0.000   0.000   0.000   0.000   0.000   0.000      0      0      0       0       0   0.970   27.447
 2024 348    53    51  11.375     1  0.078     76      0      0     30     97     97      0      0    0.0  0.000     21   0.00   0.00   1.00   0.00   0.00   0.00   0.00   1.00   6.19  380.0   0.00      0     21    296.1   0.00   0.00 0.3555   0.024   0.003   0.000   0.000   0.000   0.000   0.000   0.000   0.000   0.000      0      0      0       0       0   0.474   27.502
 2024 349    54    52  11.382     1  0.078     76      0      0     29     97     97      0      0    0.0  0.000     21   0.00   0.00   1.00   0.00   0.00   0.00   0.00   1.00   6.19  380.0   0.00      0     21    296.1   0.00   0.00 0.3568   0.024   0.003   0.000   0.000   0.000   0.000   0.000   0.000   0.000   0.000      0      0      0       0       0   1.184   27.638
 2024 350    55    53  11.392     1  0.079     76      0      0     29     98     98      0      0    0.0  0.000     21   0.00   0.00   1.00   0.00   0.00   0.00   0.00   1.00   6.16  380.0   0.00      0     21    296.1   0.00   0.00 0.3586   0.023   0.003   0.000   0.000   0.000   0.000   0.000   0.000   0.000   0.000      0      0      0       0       0   1.767   27.838
 2024 351    56    54  11.415     1  0.081     76      0      0     29     99     99      0      0    0.0  0.000     22   0.00   0.00   1.00   0.00   0.00   0.00   0.00   1.00   6.14  380.0   0.00      0     22    296.0   0.00   0.00 0.3629   0.023   0.003   0.000   0.000   0.000   0.000   0.000   0.000   0.000   0.000      0      0      0       0       0   4.100   28.297
 2024 352    57    55  11.439     1  0.083     77      0      0     30    100    100      0      0    0.0  0.000     23   0.00   0.00   1.00   0.00   0.00   0.00   0.00   1.00   6.12  380.0   0.00      0     23    296.0   0.00   0.00 0.3674   0.023   0.003   0.000   0.000   0.000   0.000   0.000   0.000   0.000   0.000      0      0      0       0       0   4.350   28.780
 2024 353    58    56  11.466     1  0.085     78      0      0     30    102    102      0      0    0.0  0.000     24   0.00   0.00   1.00   0.00   0.00   0.00   0.00   1.00   6.07  380.0   0.00      0     24    295.9   0.00   0.00 0.3725   0.023   0.003   0.000   0.000   0.000   0.000   0.000   0.000   0.000   0.000      0      0      0       0       0   4.900   29.320
 2024 354    59    57  11.501     1  0.088     79      0      0     31    104    104      0      0    0.0  0.000     24   0.00   0.00   1.00   0.00   0.00   0.00   0.00   1.00   6.02  380.0   0.00      0     24    295.8   0.00   0.00 0.3792   0.023   0.003   0.000   0.000   0.000   0.000   0.000   0.000   0.000   0.000      0      0      0       0       0   6.450   30.027
 2024 355    60    58  11.510     1  0.088     79      0      0     31    104    104      0      0    0.0  0.000     25   0.00   0.00   1.00   0.00   0.00   0.00   0.00   1.00   6.03  380.0   0.00      0     25    295.8   0.00   0.00 0.3809   0.022   0.003   0.000   0.000   0.000   0.000   0.000   0.000   0.000   0.000      0      0      0       0       0   1.655   30.208
 2024 356    61    59  11.522     1  0.090     79      0      0     31    105    105      0      0    0.0  0.000     25   0.00   0.00   1.00   0.00   0.00   0.00   0.00   1.00   6.01  380.0   0.00      0     25    295.8   0.00   0.00 0.3832   0.022   0.003   0.000   0.000   0.000   0.000   0.000   0.000   0.000   0.000      0      0      0       0       0   2.175   30.445
 2024 357    62    60  11.541     1  0.091     80      0      0     31    106    106      0      0    0.0  0.000     25   0.00   0.00   1.00   0.00   0.00   0.00   0.00   1.00   6.00  380.0   0.00      0     25    295.7   0.00   0.00 0.3867   0.022   0.003   0.000   0.000   0.000   0.000   0.000   0.000   0.000   0.000      0      0      0       0       0   3.388   30.815
 2024 358    63    61  11.549     1  0.091     80      0      0     31    106    106      0      0    0.0  0.000     26   0.00   0.00   1.00   0.00   0.00   0.00   0.00   1.00   6.00  380.0   0.00      0     26    295.7   0.00   0.00 0.3882   0.022   0.003   0.000   0.000   0.000   0.000   0.000   0.000   0.000   0.000      0      0      0       0       0   1.456   30.975
 2024 359    64    62  11.561     1  0.093     80      0      0     31    107    107      0      0    0.0  0.000     26   0.00   0.00   1.00   0.00   0.00   0.00   0.00   1.00   5.97  380.0   0.00      0     26    295.7   0.00   0.00 0.3905   0.021   0.003   0.000   0.000   0.000   0.000   0.000   0.000   0.000   0.000      0      0      0       0       0   2.199   31.216
 2024 360    65    63  11.571     1  0.094     81      0      0     31    108    108      0      0    0.0  0.000     26   0.00   0.00   1.00   0.00   0.00   0.00   0.00   1.00   5.96  380.0   0.00      0     26    295.6   0.00   0.00 0.3924   0.021   0.003   0.000   0.000   0.000   0.000   0.000   0.000   0.000   0.000      0      0      0       0       0   1.911   31.428
 2024 361    66    64  11.575     1  0.094     81      0      0     31    108    108      0      0    0.0  0.000     26   0.00   0.00   1.00   0.00   0.00   0.00   0.00   1.00   5.97  380.0   0.00      0     26    295.6   0.00   0.00 0.3932   0.021   0.003   0.000   0.000   0.000   0.000   0.000   0.000   0.000   0.000      0      0      0       0       0   0.706   31.507
 2024 362    67    65  11.578     1  0.094     81      0      0     30    108    108      0      0    0.0  0.000     26   0.00   0.00   1.00   0.00   0.00   0.00   0.00   1.00   5.98  380.0   0.00      0     26    295.6   0.00   0.00 0.3937   0.021   0.003   0.000   0.000   0.000   0.000   0.000   0.000   0.000   0.000      0      0      0       0       0   0.495   31.563
 2024 363    68    66  11.582     1  0.094     81      0      0     30    108    108      0      0    0.0  0.000     26   0.00   0.00   1.00   0.00   0.00   0.00   0.00   1.00   6.00  380.0   0.00      0     26    295.6   0.00   0.00 0.3945   0.021   0.003   0.000   0.000   0.000   0.000   0.000   0.000   0.000   0.000      0      0      0       0       0   0.731   31.646
 2024 364    69    67  11.584     1  0.094     81      0      0     30    108    108      0      0    0.0  0.000     26   0.00   0.00   1.00   0.00   0.00   0.00   0.00   1.00   6.01  380.0   0.00      0     26    295.6   0.00   0.00 0.3948   0.020   0.003   0.000   0.000   0.000   0.000   0.000   0.000   0.000   0.000      0      0      0       0       0   0.319   31.683
 2024 365    70    68  11.586     1  0.094     81      0      0     30    108    108      0      0    0.0  0.000     26   0.00   0.00   1.00   0.00   0.00   0.00   0.00   1.00   6.02  380.0   0.00      0     26    295.6   0.00   0.00 0.3951   0.020   0.003   0.000   0.000   0.000   0.000   0.000   0.000   0.000   0.000      0      0      0       0       0   0.313   31.720
 2024 366    71    69  11.588     1  0.094     81      0      0     29    108    108      0      0    0.0  0.000     26   0.00   0.00   1.00   0.00   0.00   0.00   0.00   1.00   6.03  380.0   0.00      0     26    295.6   0.00   0.00 0.3954   0.020   0.003   0.000   0.000   0.000   0.000   0.000   0.000   0.000   0.000      0      0      0       0       0   0.319   31.758
 2025 001    72    70  11.599     1  0.094     81      0      0     29    108    108      0      0    0.0  0.000     26   0.00   0.00   1.00   0.00   0.00   0.00   0.00   1.00   6.04  380.0   0.00      0     26    295.6   0.00   0.00 0.3973   0.020   0.003   0.000   0.000   0.000   0.000   0.000   0.000   0.000   0.000      0      0      0       0       0   1.794   31.973
 2025 002    73    71  11.610     1  0.095     81      0      0     29    108    108      0      0    0.0  0.000     27   0.00   0.00   1.00   0.00   0.00   0.00   0.00   1.00   6.02  380.0   0.00      0     27    295.5   0.00   0.00 0.3992   0.020   0.003   0.000   0.000   0.000   0.000   0.000   0.000   0.000   0.000      0      0      0       0       0   1.855   32.200
 2025 003    74    72  11.610     1  0.095     81      0      0     29    108    108      0      0    0.0  0.000     27   0.00   0.00   1.00   0.00   0.00   0.00   0.00   1.00   6.03  380.0   0.00      0     27    295.5   0.00   0.00 0.3993   0.019   0.003   0.000   0.000   0.000   0.000   0.000   0.000   0.000   0.000      0      0      0       0       0   0.040   32.205
 2025 004    75    73  11.612     1  0.095     81      0      0     29    108    108      0      0    0.0  0.000     27   0.00   0.00   1.00   0.00   0.00   0.00   0.00   1.00   6.03  380.0   0.00      0     27    295.5   0.00   0.00 0.3995   0.019   0.003   0.000   0.000   0.000   0.000   0.000   0.000   0.000   0.000      0      0      0       0       0   0.206   32.231
 2025 005    76    74  11.624     1  0.095     81      0      0     28    109    109      0      0    0.0  0.000     27   0.00   0.00   1.00   0.00   0.00   0.00   0.00   1.00   6.03  380.0   0.00      0     27    295.5   0.00   0.00 0.4015   0.019   0.003   0.000   0.000   0.000   0.000   0.000   0.000   0.000   0.000      0      0      0       0       0   1.911   32.480
 2025 006    77    75  11.650     1  0.098     82      0      0     29    110    110      0      0    0.0  0.000     28   0.00   0.00   1.00   0.00   0.00   0.00   0.00   1.00   5.97  380.0   0.00      0     28    295.4   0.00   0.00 0.4056   0.019   0.003   0.000   0.000   0.000   0.000   0.000   0.000   0.000   0.000      0      0      0       0       0   3.950   33.006
 2025 007    78    76  11.669     1  0.100     83      0      0     29    112    112      0      0    0.0  0.000     29   0.00   0.00   1.00   0.00   0.00   0.00   0.00   1.00   5.92  380.0   0.00      0     29    295.4   0.00   0.00 0.4085   0.019   0.003   0.000   0.000   0.000   0.000   0.000   0.000   0.000   0.000      0      0      0       0       0   2.798   33.388
 2025 008    79    77  11.686     1  0.101     83      0      0     29    113    113      0      0    0.0  0.000     29   0.00   0.00   1.00   0.00   0.00   0.00   0.00   1.00   5.89  380.0   0.00      0     29    295.3   0.00   0.00 0.4110   0.019   0.003   0.000   0.000   0.000   0.000   0.000   0.000   0.000   0.000      0      0      0       0       0   2.407   33.724
 2025 009    80    78  11.721     1  0.104     84      0      0     30    115    115      0      0    0.0  0.000     30   0.00   0.00   1.00   0.00   0.00   0.00   0.00   1.00   5.82  380.0   0.00      0     30    295.3   0.00   0.00 0.4160   0.018   0.003   0.000   0.000   0.000   0.000   0.000   0.000   0.000   0.000      0      0      0       0       0   4.867   34.422
 2025 010    81    79  11.723     1  0.104     84      0      0     30    115    115      0      0    0.0  0.000     30   0.00   0.00   1.00   0.00   0.00   0.00   0.00   1.00   5.82  380.0   0.00      0     30    295.3   0.00   0.00 0.4163   0.018   0.003   0.000   0.000   0.000   0.000   0.000   0.000   0.000   0.000      0      0      0       0       0   0.281   34.464
 2025 011    82    80  11.724     1  0.104     84      0      0     29    115    115      0      0    0.0  0.000     30   0.00   0.00   1.00   0.00   0.00   0.00   0.00   1.00   5.83  380.0   0.00      0     30    295.2   0.00   0.00 0.4164   0.018   0.003   0.000   0.000   0.000   0.000   0.000   0.000   0.000   0.000      0      0      0       0       0   0.080   34.476
 2025 012    83    81  11.724     1  0.104     84      0      0     29    115    115      0      0    0.0  0.000     30   0.00   0.00   1.00   0.00   0.00   0.00   0.00   1.00   5.83  380.0   0.00      0     30    295.2   0.00   0.00 0.4165   0.018   0.003   0.000   0.000   0.000   0.000   0.000   0.000   0.000   0.000      0      0      0       0       0   0.076   34.488
 2025 013    84    82  11.725     1  0.104     84      0      0     29    115    115      0      0    0.0  0.000     30   0.00   0.00   1.00   0.00   0.00   0.00   0.00   1.00   5.83  380.0   0.00      0     30    295.2   0.00   0.00 0.4166   0.018   0.003   0.000   0.000   0.000   0.000   0.000   0.000   0.000   0.000      0      0      0       0       0   0.130   34.509
 2025 014    85    83  11.726     1  0.104     84      0      0     28    115    115      0      0    0.0  0.000     30   0.00   0.00   1.00   0.00   0.00   0.00   0.00   1.00   5.84  380.0   0.00      0     30    295.2   0.00   0.00 0.4166   0.018   0.003   0.000   0.000   0.000   0.000   0.000   0.000   0.000   0.000      0      0      0       0       0   0.011   34.510
 2025 015    86    84  11.730     1  0.104     84      0      0     28    115    115      0      0    0.0  0.000     30   0.00   0.00   1.00   0.00   0.00   0.00   0.00   1.00   5.84  380.0   0.00      0     30    295.2   0.00   0.00 0.4172   0.017   0.003   0.000   0.000   0.000   0.000   0.000   0.000   0.000   0.000      0      0      0       0       0   0.544   34.602
 2025 016    87    85  11.746     1  0.105     85      0      0     28    115    115      0      0    0.0  0.000     30   0.00   0.00   1.00   0.00   0.00   0.00   0.00   1.00   5.82  380.0   0.00      0     30    295.2   0.00   0.00 0.4191   0.017   0.003   0.000   0.000   0.000   0.000   0.000   0.000   0.000   0.000      0      0      0       0       0   1.795   34.913
 2025 017    88    86  11.752     1  0.105     85      0      0     28    115    115      0      0    0.0  0.000     30   0.00   0.00   1.00   0.00   0.00   0.00   0.00   1.00   5.82  380.0   0.00      0     30    295.2   0.00   0.00 0.4198   0.017   0.003   0.000   0.000   0.000   0.000   0.000   0.000   0.000   0.000      0      0      0       0       0   0.729   35.043
 2025 018    89    87  11.752     1  0.105     85      0      0     28    115    115      0      0    0.0  0.000     30   0.00   0.00   1.00   0.00   0.00   0.00   0.00   1.00   5.83  380.0   0.00      0     30    295.2   0.00   0.00 0.4198   0.017   0.003   0.000   0.000   0.000   0.000   0.000   0.000   0.000   0.000      0      0      0       0       0   0.000   35.043
 2025 019    90    88  11.762     1  0.105     85      0      0     28    115    115      0      0    0.0  0.000     30   0.00   0.00   1.00   0.00   0.00   0.00   0.00   1.00   5.83  380.0   0.00      0     30    295.2   0.00   0.00 0.4209   0.017   0.003   0.000   0.000   0.000   0.000   0.000   0.000   0.000   0.000      0      0      0       0       0   1.053   35.242
 2025 020    91    89  11.780     1  0.106     85      0      0     28    116    116      0      0    0.0  0.000     31   0.00   0.00   1.00   0.00   0.00   0.00   0.00   1.00   5.81  380.0   0.00      0     31    295.1   0.00   0.00 0.4229   0.017   0.002   0.000   0.000   0.000   0.000   0.000   0.000   0.000   0.000      0      0      0       0       0   1.895   35.609
 2025 021    92    90  11.792     1  0.106     85      0      0     28    116    116      0      0    0.0  0.000     31   0.00   0.00   1.00   0.00   0.00   0.00   0.00   1.00   5.81  380.0   0.00      0     31    295.1   0.00   0.00 0.4241   0.016   0.002   0.000   0.000   0.000   0.000   0.000   0.000   0.000   0.000      0      0      0       0       0   1.161   35.840
 2025 022    93    91  11.801     1  0.106     85      0      0     27    116    116      0      0    0.0  0.000     31   0.00   0.00   1.00   0.00   0.00   0.00   0.00   1.00   5.82  380.0   0.00      0     31    295.1   0.00   0.00 0.4250   0.016   0.002   0.000   0.000   0.000   0.000   0.000   0.000   0.000   0.000      0      0      0       0       0   0.885   36.022
 2025 023    94    92  11.824     1  0.108     86      0      0     28    117    117      0      0    0.0  0.000     31   0.00   0.00   1.00   0.00   0.00   0.00   0.00   1.00   5.77  380.0   0.00      0     31    295.0   0.00   0.00 0.4273   0.016   0.002   0.000   0.000   0.000   0.000   0.000   0.000   0.000   0.000      0      0      0       0       0   2.216   36.488
 2025 024    95    93  11.867     1  0.112     87      0      0     29    120    120      0      0    0.0  0.000     33   0.00   0.00   1.00   0.00   0.00   0.00   0.00   1.00   5.68  380.0   0.00      0     33    294.9   0.00   0.00 0.4314   0.016   0.002   0.000   0.000   0.000   0.000   0.000   0.000   0.000   0.000      0      0      0       0       0   3.917   37.336
 2025 025    96    94  11.927     1  0.118     89      0      0     30    124    124      0      0    0.0  0.000     35   0.00   0.00   1.00   0.00   0.00   0.00   0.00   1.00   5.55  380.0   0.00      0     35    294.7   0.00   0.00 0.4370   0.016   0.002   0.000   0.000   0.000   0.000   0.000   0.000   0.000   0.000      0      0      0       0       0   5.400   38.538
 2025 026    97    95  11.965     1  0.122     90      0      0     31    127    127      0      0    0.0  0.000     36   0.00   0.00   1.00   0.00   0.00   0.00   0.00   1.00   5.47  380.0   0.00      0     36    294.6   0.00   0.00 0.4405   0.016   0.002   0.000   0.000   0.000   0.000   0.000   0.000   0.000   0.000      0      0      0       0       0   3.350   39.303
 2025 027    98    96  12.030     1  0.127     92      0      0     32    130    130      0      0    0.0  0.000     38   0.00   0.00   1.00   0.25   0.00   0.00   0.00   1.00   5.39  380.0   0.00      0     38    294.5   0.00   0.00 0.4462   0.016   0.003   0.000   0.000   0.000   0.000   0.000   0.000   0.000   0.000      0      0      0       0       0   5.500   40.594
 2025 028    99    97  12.067     1  0.128     92      0      0     32    131    131      0      0    0.0  0.000     38   0.00   0.00   1.00   0.28   0.00   0.00   0.00   1.00   5.36  380.0   0.00      0     38    294.4   0.00   0.00 0.4494   0.015   0.003   0.000   0.000   0.000   0.000   0.000   0.000   0.000   0.000      0      0      0       0       0   3.100   41.341
 2025 029   100    98  12.121     1  0.134     95      0      0     34    135    135      0      0    0.0  0.000     40   0.00   0.00   1.00   0.29   0.00   0.00   0.00   1.00   5.25  380.0   0.00      0     40    294.3   0.00   0.00 0.4539   0.015   0.003   0.000   0.000   0.000   0.000   0.000   0.000   0.000   0.000      0      0      0       0       0   4.347   42.417
 2025 030   101    99  12.168     1  0.140     97      0      0     35    139    139      0      0    0.0  0.000     42   0.00   0.00   1.00   0.33   0.00   0.00   0.00   1.00   5.14  380.0   0.00      0     42    294.2   0.00   0.00 0.4567   0.015   0.003   0.001   0.000   0.000   0.000   0.000   0.000   0.000   0.000      0      0      0       0       0   3.688   43.353
 2025 031   102   100  12.194     1  0.142     97      0      0     36    140    140      0      0    0.0  0.000     43   0.00   0.00   1.00   0.37   0.00   0.00   0.00   1.00   5.12  380.0   0.00      0     43    294.1   0.00   0.00 0.4583   0.015   0.003   0.001   0.000   0.000   0.000   0.000   0.000   0.000   0.000      0      0      0       0       0   2.017   43.878
 2025 032   103   101  12.212     1  0.142     97      0      0     35    140    140      0      0    0.0  0.000     43   0.00   0.00   1.00   0.38   0.00   0.00   0.00   1.00   5.12  380.0   0.00      0     43    294.0   0.00   0.00 0.4593   0.015   0.003   0.001   0.000   0.000   0.000   0.000   0.000   0.000   0.000      0      0      0       0       0   1.347   44.238
 2025 033   104   102  12.234     1  0.142     97      0      0     35    140    140      0      0    0.0  0.000     43   0.00   0.00   1.00   0.38   0.00   0.00   0.00   1.00   5.12  380.0   0.00      0     43    294.0   0.00   0.00 0.4606   0.015   0.003   0.001   0.000   0.000   0.000   0.000   0.000   0.000   0.000      0      0      0       0       0   1.647   44.689
 2025 034   105   103  12.244     1  0.142     97      0      0     35    140    140      0      0    0.0  0.000     43   0.00   0.00   1.00   0.38   0.00   0.00   0.00   1.00   5.12  380.0   0.00      0     43    294.0   0.00   0.00 0.4611   0.015   0.003   0.001   0.000   0.000   0.000   0.000   0.000   0.000   0.000      0      0      0       0       0   0.664   44.875
 2025 035   106   104  12.252     1  0.142     97      0      0     35    140    140      0      0    0.0  0.000     43   0.00   0.00   1.00   0.38   0.00   0.00   0.00   1.00   5.12  380.0   0.00      0     43    293.9   0.00   0.00 0.4616   0.015   0.003   0.001   0.000   0.000   0.000   0.000   0.000   0.000   0.000      0      0      0       0       0   0.600   45.048
 2025 036   107   105  12.274     1  0.142     97      0      0     34    140    140      0      0    0.0  0.000     43   0.00   0.00   1.00   0.37   0.00   0.00   0.00   1.00   5.13  380.0   0.00      0     43    293.9   0.00   0.00 0.4627   0.014   0.002   0.001   0.000   0.000   0.000   0.000   0.000   0.000   0.000      0      0      0       0       0   1.489   45.486
 2025 037   108   106  12.298     1  0.143     97      0      0     34    141    141      0      0    0.0  0.000     43   0.00   0.00   1.00   0.37   0.00   0.00   0.00   1.00   5.12  380.0   0.00      0     43    293.8   0.00   0.00 0.4639   0.014   0.002   0.001   0.000   0.000   0.000   0.000   0.000   0.000   0.000      0      0      0       0       0   1.578   45.962
 2025 038   109   107  12.322     1  0.143     98      0      0     34    141    141      0      0    0.0  0.000     43   0.00   0.00   1.00   0.37   0.00   0.00   0.00   1.00   5.11  380.0   0.00      0     43    293.8   0.00   0.00 0.4651   0.014   0.002   0.001   0.000   0.000   0.000   0.000   0.000   0.000   0.000      0      0      0       0       0   1.566   46.445
 2025 039   110   108  12.361     1  0.147     99      0      0     36    143    143      0      0    0.0  0.000     44   0.00   0.00   1.00   0.38   0.00   0.00   0.00   1.00   5.06  380.0   0.00      0     44    293.7   0.00   0.00 0.4670   0.014   0.002   0.001   0.000   0.000   0.000   0.000   0.000   0.000   0.000      0      0      0       0       0   2.479   47.228
 2025 040   111   109  12.390     1  0.148     99      0      0     37    144    144      0      0    0.0  0.000     45   0.00   0.00   1.00   0.39   0.00   0.00   0.00   1.00   5.04  380.0   0.00      0     45    293.6   0.00   0.00 0.4684   0.014   0.002   0.001   0.000   0.000   0.000   0.000   0.000   0.000   0.000      0      0      0       0       0   1.776   47.801
 2025 041   112   110  12.435     1  0.152    101      0      0     38    147    147      0      0    0.0  0.000     46   0.00   0.00   1.00   0.40   0.00   0.00   0.00   1.00   4.97  380.0   0.00      0     46    293.5   0.00   0.00 0.4705   0.014   0.002   0.001   0.000   0.000   0.000   0.000   0.000   0.000   0.000      0      0      0       0       0   2.707   48.694
 2025 042   113   111  12.464     1  0.153    101      0      0     39    148    148      0      0    0.0  0.000     47   0.00   0.00   1.00   0.42   0.00   0.00   0.00   1.00   4.95  380.0   0.00      0     47    293.4   0.00   0.00 0.4718   0.014   0.003   0.001   0.000   0.000   0.000   0.000   0.000   0.000   0.000      0      0      0       0       0   1.708   49.271
 2025 043   114   112  12.532     1  0.158    103      0      0     40    151    151      0      0    0.0  0.000     48   0.00   0.00   1.00   0.43   0.00   0.00   0.00   1.00   4.88  380.0   0.00      0     48    293.3   0.00   0.00 0.4749   0.014   0.003   0.001   0.000   0.000   0.000   0.000   0.000   0.000   0.000      0      0      0       0       0   3.950   50.632
 2025 044   115   113  12.555     1  0.158    103      0      0     39    151    151      0      0    0.0  0.000     48   0.00   0.00   1.00   0.45   0.00   0.00   0.00   1.00   4.88  380.0   0.00      0     48    293.2   0.00   0.00 0.4759   0.014   0.003   0.001   0.000   0.000   0.000   0.000   0.000   0.000   0.000      0      0      0       0       0   1.344   51.105
 2025 045   116   114  12.556     1  0.158    103      0      0     39    151    151      0      0    0.0  0.000     48   0.00   0.00   1.00   0.45   0.00   0.00   0.00   1.00   4.88  380.0   0.00      0     48    293.2   0.00   0.00 0.4759   0.013   0.003   0.001   0.000   0.000   0.000   0.000   0.000   0.000   0.000      0      0      0       0       0   0.063   51.128
 2025 046   117   115  12.558     1  0.158    103      0      0     39    151    151      0      0    0.0  0.000     48   0.00   0.00   1.00   0.45   0.00   0.00   0.00   1.00   4.89  380.0   0.00      0     48    293.2   0.00   0.00 0.4760   0.013   0.003   0.001   0.000   0.000   0.000   0.000   0.000   0.000   0.000      0      0      0       0       0   0.107   51.167
 2025 047   118   116  12.558     1  0.158    103      0      0     38    151    151      0      0    0.0  0.000     48   0.00   0.00   1.00   0.45   0.00   0.00   0.00   1.00   4.89  380.0   0.00      0     48    293.2   0.00   0.00 0.4760   0.013   0.002   0.001   0.000   0.000   0.000   0.000   0.000   0.000   0.000      0      0      0       0       0   0.008   51.170
 2025 048   119   117  12.559     1  0.158    103      0      0     38    151    151      0      0    0.0  0.000     48   0.00   0.00   1.00   0.45   0.00   0.00   0.00   1.00   4.89  380.0   0.00      0     48    293.2   0.00   0.00 0.4760   0.013   0.002   0.001   0.000   0.000   0.000   0.000   0.000   0.000   0.000      0      0      0       0       0   0.009   51.173
 2025 049   120   118  12.559     1  0.158    103      0      0     38    151    151      0      0    0.0  0.000     48   0.00   0.00   1.00   0.45   0.00   0.00   0.00   1.00   4.89  380.0   0.00      0     48    293.2   0.00   0.00 0.4761   0.013   0.002   0.001   0.000   0.000   0.000   0.000   0.000   0.000   0.000      0      0      0       0       0   0.027   51.184
 2025 050   121   119  12.564     1  0.158    103      0      0     37    151    151      0      0    0.0  0.000     48   0.00   0.00   1.00   0.44   0.00   0.00   0.00   1.00   4.89  380.0   0.00      0     48    293.2   0.00   0.00 0.4762   0.013   0.002   0.001   0.000   0.000   0.000   0.000   0.000   0.000   0.000      0      0      0       0       0   0.248   51.283
 2025 051   122   120  12.617     1  0.158    103      0      0     37    151    151      0      0    0.0  0.000     48   0.00   0.00   1.00   0.44   0.00   0.00   0.00   1.00   4.89  380.0   0.00      0     48    293.1   0.00   0.00 0.4783   0.013   0.002   0.001   0.000   0.000   0.000   0.000   0.000   0.000   0.000      0      0      0       0       0   2.605   52.336
 2025 052   123   121  12.730     1  0.172    107      0      0     41    161    161      0      0    0.0  0.000     53   0.00   0.00   1.00   0.44   0.00   0.00   0.00   1.00   4.68  380.0   0.00      0     53    292.8   0.00   0.00 0.4825   0.013   0.002   0.001   0.000   0.000   0.000   0.000   0.000   0.000   0.000      0      0      0       0       0   5.500   54.601
 2025 053   124   122  12.840     1  0.183    111      0      0     43    168    168      0      0    0.0  0.000     57   0.00   0.00   1.00   0.51   0.00   0.00   0.00   1.00   4.52  380.0   0.00      0     57    292.6   0.00   0.00 0.4865   0.013   0.002   0.001   0.000   0.000   0.000   0.000   0.000   0.000   0.000      0      0      0       0       0   5.249   56.802
 2025 054   125   123  12.985     1  0.195    115      0      0     46    176    176      0      0    0.0  0.000     61   0.00   0.00   1.00   0.56   0.00   0.00   0.00   1.00   4.37  380.0   0.00      0     61    292.3   0.00   0.00 0.4918   0.013   0.003   0.001   0.000   0.000   0.000   0.000   0.000   0.000   0.000      0      0      0       0       0   6.800   59.704
 2025 055   126   124  13.109     1  0.205    119      0      0     49    184    184      0      0    0.0  0.000     64   0.00   0.00   1.00   0.61   0.00   0.00   0.00   1.00   4.24  380.0   0.00      0     64    292.0   0.00   0.00 0.4962   0.012   0.003   0.001   0.000   0.000   0.000   0.000   0.000   0.000   0.000      0      0      0       0       0   5.700   62.181
 2025 056   127   125  13.276     1  0.215    122      0      0     51    190    190      0      0    0.0  0.000     68   0.00   0.00   1.00   0.65   0.00   0.00   0.00   1.00   4.13  380.0   0.00      0     68    291.6   0.00   0.00 0.5020   0.012   0.003   0.001   0.001   0.000   0.000   0.000   0.000   0.000   0.000      0      0      0       0       0   7.550   65.518
 2025 057   128   126  13.347     1  0.219    123      0      0     52    193    193      0      0    0.0  0.000     69   0.00   0.00   1.00   0.68   0.00   0.00   0.00   1.00   4.09  380.0   0.00      0     69    291.5   0.00   0.00 0.5044   0.012   0.003   0.001   0.001   0.000   0.000   0.000   0.000   0.000   0.000      0      0      0       0       0   3.159   66.938
 2025 058   129   127  13.417     1  0.224    125      0      0     53    196    196      0      0    0.0  0.000     71   0.00   0.00   1.00   0.69   0.00   0.00   0.00   1.00   4.04  380.0   0.00      0     71    291.3   0.00   0.00 0.5068   0.012   0.003   0.001   0.001   0.000   0.000   0.000   0.000   0.000   0.000      0      0      0       0       0   3.084   68.348
 2025 059   130   128  13.477     1  0.228    126      0      0     54    199    199      0      0    0.0  0.000     72   0.00   0.00   1.00   0.71   0.00   0.00   0.00   1.00   4.00  380.0   0.00      0     72    291.2   0.00   0.00 0.5088   0.012   0.003   0.001   0.001   0.000   0.000   0.000   0.000   0.000   0.000      0      0      0       0       0   2.566   69.540
 2025 060   131   129  13.541     1  0.232    128      0      0     55    202    202      0      0    0.0  0.000     74   0.00   0.00   1.00   0.72   0.00   0.00   0.00   1.00   3.95  380.0   0.00      0     74    291.1   0.00   0.00 0.5109   0.012   0.003   0.001   0.001   0.000   0.000   0.000   0.000   0.000   0.000      0      0      0       0       0   2.728   70.828
 2025 061   132   130  13.623     1  0.241    131      0      0     57    208    208      0      0    0.0  0.000     77   0.00   0.00   1.00   0.73   0.00   0.00   0.00   1.00   3.87  380.0   0.00      0     77    290.9   0.00   0.00 0.5135   0.012   0.003   0.001   0.001   0.000   0.000   0.000   0.000   0.000   0.000      0      0      0       0       0   3.404   72.461
 2025 062   133   131  13.720     1  0.241    131      0      0     57    208    208      0      0    0.0  0.000     77   0.00   0.00   1.00   0.75   0.00   0.00   0.00   1.00   3.87  380.0   0.00      0     77    290.7   0.00   0.00 0.5166   0.012   0.003   0.001   0.001   0.000   0.000   0.000   0.000   0.000   0.000      0      0      0       0       0   4.000   74.410
 2025 063   134   132  13.854     1  0.252    135      0      0     60    215    215      0      0    0.0  0.000     80   0.00   0.00   1.00   0.75   0.00   0.00   0.00   1.00   3.77  380.0   0.00      0     80    290.4   0.00   0.00 0.5207   0.012   0.003   0.001   0.001   0.000   0.000   0.000   0.000   0.000   0.000      0      0      0       0       0   5.395   77.079
 2025 064   135   133  14.036     1  0.263    139      0      0     62    223    223      0      0    0.0  0.000     84   0.00   0.00   1.00   0.78   0.00   0.00   0.00   1.00   3.67  380.0   0.00      0     84    290.0   0.00   0.00 0.5263   0.012   0.003   0.001   0.001   0.000   0.000   0.000   0.000   0.000   0.000      0      0      0       0       0   7.238   80.713
 2025 065   136   134  14.251     1  0.275    143      0      0     65    232    232      0      0    0.0  0.000     89   0.00   0.00   1.00   0.81   0.00   0.00   0.00   1.00   3.57  380.0   0.00      0     89    289.6   0.00   0.00 0.5328   0.012   0.003   0.001   0.001   0.000   0.000   0.000   0.000   0.000   0.000      0      0      0       0       0   8.470   85.030
 2025 066   137   135  14.473     1  0.286    147      0      0     68    239    239      0      0    0.0  0.000     92   0.00   0.00   1.00   0.84   0.00   0.00   0.00   1.00   3.48  380.0   0.00      0     92    289.2   0.00   0.00 0.5394   0.012   0.003   0.001   0.001   0.000   0.000   0.000   0.000   0.000   0.000      0      0      0       0       0   8.550   89.451
 2025 067   138   136  14.701     1  0.296    150      0      0     70    246    246      0      0    0.0  0.000     96   0.00   0.00   1.00   0.86   0.00   0.00   0.00   1.00   3.41  380.0   0.00      0     96    288.7   0.00   0.00 0.5461   0.012   0.003   0.001   0.001   0.000   0.000   0.000   0.000   0.000   0.000      0      0      0       0       0   8.700   94.014
 2025 068   139   137  14.943     1  0.305    153      0      0     72    252    252      0      0    0.0  0.000     99   0.00   0.00   1.00   0.88   0.00   0.00   0.00   1.00   3.35  380.0   0.00      0     99    288.3   0.00   0.00 0.5531   0.012   0.003   0.001   0.001   0.000   0.000   0.000   0.000   0.000   0.000      0      0      0       0       0   9.100   98.855
 2025 069   140   138  15.175     1  0.311    155      0      0     73    256    256      0      0    0.0  0.000    101   0.00   0.00   1.00   0.89   0.00   0.00   0.00   1.00   3.31  380.0   0.00      0    101    287.9   0.00   0.00 0.5597   0.012   0.003   0.001   0.001   0.000   0.000   0.000   0.000   0.000   0.000      0      0      0       0       0   8.600  103.492
 2025 070   141   139  15.371     1  0.316    157      0      0     74    260    260      0      0    0.0  0.000    103   0.00   0.00   1.00   0.90   0.00   0.00   0.00   1.00   3.28  380.0   0.00      0    103    287.5   0.00   0.00 0.5653   0.012   0.003   0.001   0.001   0.000   0.000   0.000   0.000   0.000   0.000      0      0      0       0       0   7.200  107.428
 2025 071   142   140  15.499     1  0.319    158      0      0     74    262    262      0      0    0.0  0.000    103   0.00   0.00   1.00   0.91   0.00   0.00   0.00   1.00   3.28  380.0   0.00      0    103    287.3   0.00   0.00 0.5688   0.012   0.003   0.001   0.001   0.000   0.000   0.000   0.000   0.000   0.000      0      0      0       0       0   4.600  109.976
 2025 072   143   141  15.589     1  0.321    159      0      0     74    263    263      0      0    0.0  0.000    104   0.00   0.00   1.00   0.91   0.00   0.00   0.00   1.00   3.29  380.0   0.00      0    104    287.2   0.00   0.00 0.5713   0.012   0.003   0.001   0.001   0.000   0.000   0.000   0.000   0.000   0.000      0      0      0       0       0   3.200  111.772
 2025 073   144   142  15.707     1  0.324    160      0      0     74    265    265      0      0    0.0  0.000    105   0.00   0.00   1.00   0.90   0.00   0.00   0.00   1.00   3.28  380.0   0.00      0    105    287.0   0.00   0.00 0.5745   0.011   0.003   0.001   0.001   0.000   0.000   0.000   0.000   0.000   0.000      0      0      0       0       0   4.150  114.131
 2025 074   145   143  15.845     1  0.328    161      0      0     75    268    268      0      0    0.0  0.000    107   0.00   0.00   1.00   0.90   0.00   0.00   0.00   1.00   3.28  380.0   0.00      0    107    286.7   0.00   0.00 0.5782   0.011   0.003   0.001   0.001   0.000   0.000   0.000   0.000   0.000   0.000      0      0      0       0       0   4.810  116.899
 2025 075   146   144  15.984     1  0.333    163      0      0     76    272    272      0      0    0.0  0.000    108   0.00   0.00   1.00   0.90   0.00   0.00   0.00   1.00   3.26  380.0   0.00      0    108    286.5   0.00   0.00 0.5818   0.011   0.003   0.001   0.001   0.000   0.000   0.000   0.000   0.000   0.000      0      0      0       0       0   4.766  119.677
 2025 076   147   145  16.054     1  0.333    163      0      0     76    272    272      0      0    0.0  0.000    109   0.00   0.00   1.00   0.90   0.00   0.00   0.00   1.00   3.27  380.0   0.00      0    109    286.4   0.00   0.00 0.5837   0.011   0.003   0.001   0.001   0.000   0.000   0.000   0.000   0.000   0.000      0      0      0       0       0   2.390  121.087
 2025 077   148   146  16.130     1  0.334    163      0      0     75    272    272      0      0    0.0  0.000    109   0.00   0.00   1.00   0.90   0.00   0.00   0.00   1.00   3.28  380.0   0.00      0    109    286.3   0.00   0.00 0.5856   0.011   0.003   0.001   0.001   0.000   0.000   0.000   0.000   0.000   0.000      0      0      0       0       0   2.550  122.609
 2025 078   149   147  16.292     1  0.334    163      0      0     74    272    272      0      0    0.0  0.000    109   0.00   0.00   1.00   0.89   0.00   0.00   0.00   1.00   3.29  380.0   0.00      0    109    286.0   0.00   0.00 0.5898   0.011   0.003   0.001   0.001   0.000   0.000   0.000   0.000   0.000   0.000      0      0      0       0       0   5.360  125.847
 2025 079   150   148  16.576     1  0.344    167      0      0     77    279    279      0      0    0.0  0.000    112   0.00   0.00   1.00   0.88   0.00   0.00   0.00   1.00   3.23  380.0   0.00      0    112    285.5   0.00   0.00 0.5969   0.011   0.003   0.001   0.001   0.000   0.000   0.000   0.000   0.000   0.000      0      0      0       0       0   9.270  131.511
 2025 080   151   149  16.889     1  0.353    170      0      0     79    286    286      0      0    0.0  0.000    116   0.00   0.00   1.00   0.90   0.00   0.00   0.00   1.00   3.18  380.0   0.00      0    116    285.1   0.00   0.00 0.6047   0.011   0.003   0.001   0.001   0.000   0.000   0.000   0.000   0.000   0.000      0      0      0       0       0  10.150  137.784
 2025 081   152   150  17.200     1  0.360    172      0      0     80    291    291      0      0    0.0  0.000    118   0.00   0.00   1.00   0.91   0.00   0.00   0.00   1.00   3.15  380.0   0.00      0    118    284.6   0.00   0.00 0.6096   0.011   0.003   0.001   0.001   0.000   0.000   0.000   0.000   0.000   0.000      0      0      0       0       0   9.950  144.002
 2025 082   153   151  17.467     1  0.366    175      0      0     81    295    295      0      0    0.0  0.000    120   0.00   0.00   1.00   0.92   0.00   0.00   0.00   1.00   3.12  380.0   0.00      0    120    284.2   0.00   0.00 0.6137   0.011   0.003   0.001   0.001   0.000   0.000   0.000   0.000   0.000   0.000      0      0      0       0       0   8.450  149.341
 2025 083   154   152  17.767     1  0.371    176      0      0     81    298    298      0      0    0.0  0.000    122   0.00   0.00   1.00   0.92   0.00   0.00   0.00   1.00   3.10  380.0   0.00      0    122    283.8   0.00   0.00 0.6184   0.011   0.003   0.001   0.001   0.000   0.000   0.000   0.000   0.000   0.000      0      0      0       0       0   9.400  155.345
 2025 084   155   153  18.087     1  0.377    178      0      0     82    302    302      0      0    0.0  0.000    124   0.00   0.00   1.00   0.92   0.00   0.00   0.00   1.00   3.08  380.0   0.00      0    124    283.4   0.00   0.00 0.6232   0.011   0.003   0.001   0.001   0.000   0.000   0.000   0.000   0.000   0.000      0      0      0       0       0   9.900  161.734
 2025 085   156   154  18.302     1  0.380    179      0      0     82    305    305      0      0    0.0  0.000    125   0.00   0.00   1.00   0.93   0.00   0.00   0.00   1.00   3.08  380.0   0.00      0    125    283.1   0.00   0.00 0.6265   0.011   0.003   0.001   0.001   0.000   0.000   0.000   0.000   0.000   0.000      0      0      0       0       0   6.600  166.038
 2025 086   157   155  18.534     1  0.386    181      0      0     83    309    309      0      0    0.0  0.000    127   0.00   0.00   1.00   0.92   0.00   0.00   0.00   1.00   3.07  380.0   0.00      0    127    282.8   0.00   0.00 0.6299   0.011   0.003   0.001   0.001   0.000   0.000   0.000   0.000   0.000   0.000      0      0      0       0       0   7.050  170.683
 2025 087   158   156  18.798     1  0.390    184      0      0     85    314    314      0      0    0.0  0.000    129   0.00   0.00   1.00   0.92   0.00   0.00   0.00   1.00   3.05  380.0   0.00      0    129    282.4   0.00   0.00 0.6338   0.011   0.003   0.002   0.001   0.000   0.000   0.000   0.000   0.000   0.000      0      0      0       0       0   7.939  175.966
 2025 088   159   157  19.074     1  0.392    186      0      0     86    317    317      0      0    0.0  0.000    131   0.00   0.00   1.00   0.92   0.00   0.00   0.00   1.00   3.05  380.0   0.00      0    131    282.1   0.00   0.00 0.6378   0.010   0.003   0.002   0.001   0.000   0.000   0.000   0.000   0.000   0.000      0      0      0       0       0   8.200  181.476
 2025 089   160   158  19.274     1  0.394    187      0      0     87    320    320      0      0    0.0  0.000    133   0.00   0.00   1.00   0.92   0.00   0.00   0.00   1.00   3.06  380.0   0.00      0    133    281.9   0.00   0.00 0.6407   0.010   0.003   0.002   0.001   0.000   0.000   0.000   0.000   0.000   0.000      0      0      0       0       0   5.900  185.480
 2025 090   161   159  19.454     1  0.396    189      0      0     87    323    323      0      0    0.0  0.000    134   0.00   0.00   1.00   0.91   0.00   0.00   0.00   1.00   3.06  380.0   0.00      0    134    281.7   0.00   0.00 0.6433   0.010   0.003   0.002   0.001   0.000   0.000   0.000   0.000   0.000   0.000      0      0      0       0       0   5.250  189.076
 2025 091   162   160  19.640     1  0.400    191      0      0     88    327    327      0      0    0.0  0.000    136   0.00   0.00   1.00   0.91   0.00   0.00   0.00   1.00   3.06  380.0   0.00      0    136    281.4   0.00   0.00 0.6459   0.010   0.003   0.002   0.001   0.000   0.000   0.000   0.000   0.000   0.000      0      0      0       0       0   5.400  192.809
 2025 092   163   161  19.925     1  0.408    194      0      0     90    334    334      0      0    0.0  0.000    140   0.00   0.00   1.00   0.90   0.00   0.00   0.00   1.00   3.04  380.0   0.00      0    140    281.1   0.00   0.00 0.6499   0.010   0.003   0.002   0.001   0.000   0.000   0.000   0.000   0.000   0.000      0      0      0       0       0   8.150  198.496
 2025 093   164   162  20.296     1  0.418    198      0      0     93    342    342      0      0    0.0  0.000    144   0.00   0.00   1.00   0.90   0.00   0.00   0.00   1.00   3.00  380.0   0.00      0    144    280.7   0.00   0.00 0.6551   0.010   0.003   0.002   0.001   0.000   0.000   0.000   0.000   0.000   0.000      0      0      0       0       0  10.550  205.923
 2025 094   165   163  20.665     1  0.427    202      0      0     95    350    350      0      0    0.0  0.000    148   0.00   0.00   1.00   0.91   0.00   0.00   0.00   1.00   2.96  380.0   0.00      0    148    280.3   0.00   0.00 0.6602   0.010   0.004   0.002   0.001   0.001   0.000   0.000   0.000   0.000   0.000      0      0      0       0       0  10.400  213.309
 2025 095   166   164  21.036     1  0.435    205      0      0     97    357    357      0      0    0.0  0.000    151   0.00   0.00   1.00   0.92   0.00   0.00   0.00   1.00   2.94  380.0   0.00      0    151    280.0   0.00   0.00 0.6653   0.010   0.004   0.002   0.001   0.001   0.000   0.000   0.000   0.000   0.000      0      0      0       0       0  10.350  220.723
 2025 096   167   165  21.182     1  0.437    207      0      0     99    360    360      0      0    0.0  0.000    152   0.00   0.00   1.00   0.92   0.00   0.00   0.00   1.00   2.94  380.0   0.00      0    152    279.8   0.00   0.00 0.6673   0.010   0.004   0.002   0.001   0.001   0.000   0.000   0.000   0.000   0.000      0      0      0       0       0   4.034  223.638
 2025 097   168   166  21.342     1  0.437    207      0      0     98    360    360      0      0    0.0  0.000    153   0.00   0.00   1.00   0.92   0.00   0.00   0.00   1.00   2.96  380.0   0.00      0    153    279.6   0.00   0.00 0.6694   0.010   0.004   0.002   0.001   0.001   0.000   0.000   0.000   0.000   0.000      0      0      0       0       0   4.407  226.848
 2025 098   169   167  21.597     1  0.445    210      0      0    101    366    366      0      0    0.0  0.000    155   0.00   0.00   1.00   0.91   0.00   0.00   0.00   1.00   2.94  380.0   0.00      0    155    279.4   0.00   0.00 0.6728   0.010   0.004   0.002   0.001   0.001   0.000   0.000   0.000   0.000   0.000      0      0      0       0       0   6.937  231.943
 2025 099   170   168  21.836     1  0.451    212      0      0    104    371    371      0      0    0.0  0.000    158   0.00   0.00   1.00   0.91   0.00   0.00   0.00   1.00   2.92  380.0   0.00      0    158    279.2   0.00   0.00 0.6760   0.010   0.004   0.002   0.001   0.001   0.000   0.000   0.000   0.000   0.000      0      0      0       0       0   6.450  236.719
 2025 100   171   169  22.119     1  0.459    216      0      0    107    377    377      0      0    0.0  0.000    161   0.00   0.00   1.00   0.91   0.00   0.00   0.00   1.00   2.90  380.0   0.00      0    161    278.9   0.00   0.00 0.6797   0.010   0.004   0.002   0.001   0.001   0.000   0.000   0.000   0.000   0.000      0      0      0       0       0   7.600  242.390
 2025 101   172   170  22.464     1  0.468    219      0      0    110    384    384      0      0    0.0  0.000    165   0.00   0.00   1.00   0.91   0.00   0.00   0.00   1.00   2.87  380.0   0.00      0    165    278.6   0.00   0.00 0.6842   0.010   0.004   0.002   0.001   0.001   0.000   0.000   0.000   0.000   0.000      0      0      0       0       0   9.160  249.278
 2025 102   173   171  22.877     1  0.473    223      0      0    113    392    392      0      0    0.0  0.000    169   0.00   0.00   1.00   0.92   0.00   0.00   0.00   1.00   2.83  380.0   0.00      0    169    278.3   0.00   0.00 0.6896   0.010   0.004   0.002   0.001   0.001   0.000   0.000   0.000   0.000   0.000      0      0      0       0       0  10.900  257.537
 2025 103   174   172  23.335     1  0.473    226      0      0    114    397    397      0      0    0.0  0.000    171   0.00   0.00   1.00   0.93   0.00   0.00   0.00   1.00   2.82  380.0   0.00      0    171    277.9   0.00   0.00 0.6955   0.010   0.004   0.002   0.001   0.001   0.000   0.000   0.000   0.000   0.000      0      0      0       0       0  12.000  266.697
 2025 104   175   173  23.831     1  0.475    229      0      0    115    403    403      0      0    0.0  0.000    174   0.00   0.00   1.00   0.92   0.00   0.00   0.00   1.00   2.80  380.0   0.00      0    174    277.5   0.00   0.00 0.7018   0.010   0.004   0.002   0.001   0.001   0.000   0.000   0.000   0.000   0.000      0      0      0       0       0  12.900  276.616
 2025 105   176   174  24.406     1  0.479    232      0      0    117    411    411      0      0    0.0  0.000    178   0.00   0.00   1.00   0.92   0.00   0.00   0.00   1.00   2.78  380.0   0.00      0    178    277.1   0.00   0.00 0.7091   0.010   0.004   0.002   0.001   0.001   0.000   0.000   0.000   0.000   0.000      0      0      0       0       0  14.850  288.115
 2025 106   177   175  25.035     1  0.484    236      0      0    119    418    418      0      0    0.0  0.000    182   0.00   0.00   1.00   0.92   0.00   0.00   0.00   1.00   2.76  380.0   0.00      0    182    276.7   0.00   0.00 0.7170   0.010   0.004   0.002   0.001   0.001   0.000   0.000   0.000   0.000   0.000      0      0      0       0       0  16.150  300.709
 2025 107   178   176  25.457     1  0.487    239      0      0    120    424    424      0      0    0.0  0.000    185   0.00   0.00   1.00   0.92   0.00   0.00   0.00   1.00   2.76  380.0   0.00      0    185    276.4   0.00   0.00 0.7223   0.010   0.004   0.002   0.001   0.001   0.000   0.000   0.000   0.000   0.000      0      0      0       0       0  10.750  309.150
 2025 108   179   177  25.762     1  0.489    240      0      0    120    427    427      0      0    0.0  0.000    186   0.00   0.00   1.00   0.92   0.00   0.00   0.00   1.00   2.77  380.0   0.00      0    186    276.2   0.00   0.00 0.7261   0.010   0.004   0.002   0.002   0.001   0.000   0.000   0.000   0.000   0.000      0      0      0       0       0   7.700  315.236
 2025 109   180   178  26.164     1  0.501    245      0      0    123    436    436      0      0    0.0  0.000    191   0.00   0.00   1.00   0.90   0.00   0.00   0.00   1.00   2.75  380.0   0.00      0    191    276.0   0.00   0.00 0.7310   0.010   0.004   0.002   0.002   0.001   0.000   0.000   0.000   0.000   0.000      0      0      0       0       0  10.100  323.272
 2025 110   181   179  26.714     1  0.513    250      0      0    126    447    447      0      0    0.0  0.000    196   0.00   0.00   1.00   0.90   0.00   0.00   0.00   1.00   2.74  380.0   0.00      0    196    275.6   0.00   0.00 0.7378   0.010   0.004   0.002   0.002   0.001   0.000   0.000   0.000   0.000   0.000      0      0      0       0       0  13.750  334.282
 2025 111   182   180  27.147     1  0.512    255      0      0    129    456    456      0      0    0.0  0.000    201   0.00   0.00   1.00   0.90   0.00   0.00   0.00   1.00   2.73  380.0   0.00      0    201    275.4   0.00   0.00 0.7430   0.010   0.004   0.002   0.002   0.001   0.000   0.000   0.000   0.000   0.000      0      0      0       0       0  10.750  342.944
 2025 112   183   181  27.581     1  0.516    259      0      0    132    465    465      0      0    0.0  0.000    205   0.00   0.00   1.00   0.89   0.00   0.00   0.00   1.00   2.72  380.0   0.00      0    205    275.2   0.00   0.00 0.7483   0.010   0.004   0.002   0.002   0.001   0.000   0.000   0.000   0.000   0.000      0      0      0       0       0  10.700  351.620
 2025 113   184   182  28.062     1  0.525    265      0      0    135    477    477      0      0    0.0  0.000    211   0.00   0.00   1.00   0.88   0.00   0.00   0.00   1.00   2.69  380.0   0.00      0    211    274.9   0.00   0.00 0.7541   0.010   0.004   0.002   0.002   0.001   0.000   0.000   0.000   0.000   0.000      0      0      0       0       0  11.800  361.244
 2025 114   185   183  28.429     1  0.528    269      0      0    137    484    484      0      0    0.0  0.000    215   0.00   0.00   1.00   0.88   0.00   0.00   0.00   1.00   2.69  380.0   0.00      0    215    274.8   0.00   0.00 0.7585   0.010   0.004   0.002   0.002   0.001   0.000   0.000   0.000   0.000   0.000      0      0      0       0       0   8.950  368.588
 2025 115   186   184  28.778     1  0.532    272      0      0    138    490    490      0      0    0.0  0.000    218   0.00   0.00   1.00   0.88   0.00   0.00   0.00   1.00   2.69  380.0   0.00      0    218    274.6   0.00   0.00 0.7626   0.010   0.005   0.002   0.002   0.001   0.000   0.000   0.000   0.000   0.000      0      0      0       0       0   8.450  375.561
 2025 116   187   185  29.174     1  0.546    278      0      0    142    503    503      0      0    0.0  0.000    224   0.00   0.00   1.00   0.87   0.00   0.00   0.00   1.00   2.67  380.0   0.00      0    224    274.4   0.00   0.00 0.7673   0.010   0.005   0.002   0.002   0.001   0.000   0.000   0.000   0.000   0.000      0      0      0       0       0   9.550  383.486
 2025 117   188   186  29.635     1  0.564    286      0      0    149    519    519      0      0    0.0  0.000    232   0.00   0.00   1.00   0.87   0.00   0.00   0.00   1.00   2.65  380.0   0.00      0    232    274.2   0.00   0.00 0.7727   0.010   0.005   0.002   0.002   0.001   0.000   0.000   0.000   0.000   0.000      0      0      0       0       0  11.050  392.706
 2025 118   189   187  30.137     2  0.579    293      3      0    153    535    535      0      0    0.0  0.000    239   0.00   0.00   1.00   0.86   0.00   0.00   0.00   1.00   2.63  768.0   0.00      0    239    274.2   0.00   0.00 0.7790   0.010   0.005   0.003   0.002   0.001   0.000   0.000   0.000   0.000   0.000      0      0      0       0       0  12.850    3.487
 2025 119   190   188  30.711     2  0.596    301      6      0    159    553    553      0      0    0.0  0.000    246   0.00   0.00   1.00   0.86   0.00   0.00   0.00   1.00   2.61  808.0   0.00      0    246    274.2   0.00   0.00 0.7862   0.010   0.005   0.003   0.002   0.001   0.000   0.000   0.000   0.000   0.000      0      0      0       0       0  14.550   18.037
 2025 120   191   189  31.301     2  0.613    308     10      0    165    571    571      0      0    0.0  0.000    254   0.00   0.00   1.00   0.86   0.00   0.00   0.00   1.00   2.58  819.7   0.00      0    254    274.2   0.00   0.00 0.7935   0.010   0.005   0.003   0.002   0.001   0.000   0.000   0.000   0.000   0.000      0      0      0       0       0  15.000   33.037
 2025 121   192   190  32.079     2  0.597    314     13      0    170    587    587      0      0    0.0  0.000    260   0.00   0.00   1.00   0.85   0.00   0.00   0.00   1.00   2.56  812.6   0.00      0    260    274.2   0.00   0.00 0.8032   0.010   0.005   0.003   0.002   0.001   0.000   0.000   0.000   0.000   0.000      0      0      0       0       0  19.750   52.787
 2025 122   193   191  32.796     2  0.585    322     18      0    176    608    608      0      0    0.0  0.000    268   0.00   0.00   1.00   0.84   0.00   0.00   0.00   1.00   2.53  800.5   0.00      0    268    274.2   0.00   0.00 0.8121   0.010   0.005   0.003   0.002   0.001   0.000   0.000   0.000   0.000   0.000      0      0      0       0       0  18.200   70.987
 2025 123   194   192  33.446     2  0.574    326     21      0    179    620    620      0      0    0.0  0.000    272   0.00   0.00   1.00   0.85   0.00   0.00   0.00   1.00   2.53  785.7   0.00      0    272    274.2   0.00   0.00 0.8202   0.010   0.005   0.003   0.002   0.001   0.000   0.000   0.000   0.000   0.000      0      0      0       0       0  16.500   87.487
 2025 124   195   193  33.898     2  0.572    331     26      0    183    634    634      0      0    0.0  0.000    277   0.00   0.00   1.00   0.83   0.00   0.00   0.00   1.00   2.52  774.9   0.00      0    277    274.2   0.00   0.00 0.8258   0.010   0.005   0.003   0.002   0.001   0.000   0.000   0.000   0.000   0.000      0      0      0       0       0  11.450   98.937
 2025 125   196   194  34.246     2  0.576    336     29      0    186    647    647      0      0    0.0  0.000    282   0.00   0.00   1.00   0.83   0.00   0.00   0.00   1.00   2.53  766.4   0.00      0    282    274.2   0.00   0.00 0.8302   0.010   0.006   0.003   0.002   0.001   0.000   0.000   0.000   0.000   0.000      0      0      0       0       0   8.850  107.787
 2025 126   197   195  34.642     2  0.591    344     36      0    193    669    669      0      0    0.0  0.000    289   0.00   0.00   1.00   0.81   0.00   0.00   0.00   1.00   2.52  756.9   0.00      0    289    274.2   0.00   0.00 0.8351   0.010   0.006   0.003   0.002   0.001   0.000   0.000   0.000   0.000   0.000      0      0      0       0       0  10.050  117.837
 2025 127   198   196  35.048     2  0.609    352     44      0    200    693    693      0      0    0.0  0.000    297   0.00   0.00   1.00   0.80   0.00   0.00   0.00   1.00   2.51  747.4   0.00      0    297    274.2   0.00   0.00 0.8402   0.011   0.006   0.003   0.002   0.001   0.000   0.000   0.000   0.000   0.000      0      0      0       0       0  10.300  128.137
 2025 128   199   197  35.509     2  0.622    359     51      0    206    714    714      0      0    0.0  0.000    304   0.00   0.00   1.00   0.80   0.00   0.00   0.00   1.00   2.50  736.2   0.00      0    304    274.2   0.00   0.00 0.8459   0.011   0.006   0.003   0.002   0.002   0.000   0.000   0.000   0.000   0.000      0      0      0       0       0  11.700  139.837
 2025 129   200   198  35.924     2  0.649    369     63      0    217    747    747      0      0    0.0  0.000    315   0.00   0.00   1.00   0.79   0.00   0.00   0.00   1.00   2.46  726.7   0.00      0    315    274.2   0.00   0.00 0.8511   0.011   0.006   0.003   0.003   0.002   0.000   0.000   0.000   0.000   0.000      0      0      0       0       0  10.550  150.387
 2025 130   201   199  36.324     2  0.676    380     75      0    228    780    780      0      0    0.0  0.000    325   0.00   0.00   1.00   0.81   0.00   0.00   0.00   1.00   2.42  718.2   0.00      0    325    274.2   0.00   0.00 0.8561   0.011   0.006   0.004   0.003   0.002   0.001   0.000   0.000   0.000   0.000      0      0      0       0       0  10.150  160.537
 2025 131   202   200  36.826     2  0.701    390     87      0    238    812    812      0      0    0.0  0.000    335   0.00   0.00   1.00   0.82   0.00   0.00   0.00   1.00   2.39  707.7   0.00      0    335    274.2   0.00   0.00 0.8623   0.011   0.007   0.004   0.003   0.002   0.001   0.000   0.000   0.000   0.000      0      0      0       0       0  12.750  173.287
 2025 132   203   201  37.376     2  0.725    399    100      0    248    843    843      0      0    0.0  0.000    344   0.00   0.00   1.00   0.83   0.00   0.00   0.00   1.00   2.36  696.3   0.00      0    344    274.2   0.00   0.00 0.8692   0.011   0.007   0.004   0.003   0.002   0.001   0.000   0.000   0.000   0.000      0      0      0       0       0  13.950  187.237
 2025 133   204   202  37.886     2  0.746    407    112      0    257    872    872      0      0    0.0  0.000    353   0.00   0.00   1.00   0.84   0.00   0.00   0.00   1.00   2.33  686.0   0.00      0    353    274.2   0.00   0.00 0.8755   0.012   0.007   0.004   0.003   0.002   0.001   0.000   0.000   0.000   0.000      0      0      0       0       0  12.950  200.187
 2025 134   205   203  38.412     2  0.767    415    125      0    266    901    901      0      0    0.0  0.000    361   0.00   0.00   1.00   0.85   0.00   0.00   0.00   1.00   2.31  675.5   0.00      0    361    274.2   0.00   0.00 0.8821   0.012   0.007   0.004   0.003   0.002   0.001   0.000   0.000   0.000   0.000      0      0      0       0       0  13.350  213.537
 2025 135   206   204  38.903     2  0.785    422    136      0    273    926    926      0      0    0.0  0.000    368   0.00   0.00   1.00   0.85   0.00   0.00   0.00   1.00   2.29  665.9   0.00      0    368    274.2   0.00   0.00 0.8882   0.012   0.007   0.004   0.003   0.002   0.001   0.000   0.000   0.000   0.000      0      0      0       0       0  12.450  225.987
 2025 136   207   205  39.315     2  0.801    428    148      0    280    950    950      0      0    0.0  0.000    374   0.00   0.00   1.00   0.86   0.00   0.00   0.00   1.00   2.28  658.0   0.00      0    374    274.2   0.00   0.00 0.8933   0.012   0.008   0.004   0.003   0.002   0.001   0.000   0.000   0.000   0.000      0      0      0       0       0  10.470  236.456
 2025 137   208   206  39.772     2  0.819    435    160      0    288    975    975      0      0    0.0  0.000    380   0.00   0.00   1.00   0.85   0.00   0.00   0.00   1.00   2.26  649.5   0.00      0    380    274.2   0.00   0.00 0.8990   0.012   0.008   0.005   0.003   0.002   0.001   0.000   0.000   0.000   0.000      0      0      0       0       0  11.600  248.056
 2025 138   209   207  40.272     2  0.835    441    173      0    295   1000   1000      0      0    0.0  0.000    386   0.00   0.00   1.00   0.85   0.00   0.00   0.00   1.00   2.24  640.2   0.00      0    386    274.2   0.00   0.00 0.9052   0.012   0.008   0.005   0.003   0.002   0.001   0.000   0.000   0.000   0.000      0      0      0       0       0  12.700  260.756
 2025 139   210   208  40.751     2  0.847    448    189      0    304   1031   1031      0      0    0.0  0.000    394   0.00   0.00   1.00   0.85   0.00   0.00   0.00   1.00   2.22  631.6   0.00      0    394    274.2   0.00   0.00 0.9085   0.012   0.008   0.005   0.003   0.002   0.001   0.000   0.000   0.000   0.000      0      0      0       0       0  12.150  272.906
[...]
 2025 150   221   219  49.713     3  4.951   2545   2464      0   3222   7778   7778      0      0    0.0  0.000   2769   0.56   1.00   1.00   0.23   0.00   0.00   0.00   1.00   2.47 1509.4   0.00      0   2769    274.2   0.00   0.00 0.9486   0.217   0.073   0.039   0.028   0.020   0.009   0.000   0.000   0.000   0.000      0      0      0       0       0  20.450   92.304
 2025 151   222   220  51.288     3  4.879   2545   2523      0   3207   7837   7837      0      0    0.0  0.000   2769   0.78   1.00   1.48   0.16   0.00   0.00   0.00   1.00   2.47 1493.8   0.00      0   2769    274.2   0.00   0.00 0.9544   0.215   0.072   0.039   0.028   0.020   0.009   0.000   0.000   0.000   0.000      0      0      0       0       0  21.650  113.954
 2025 152   223   221  52.818     3  4.818   2545   2622      0   3201   7936   7936      0      0    0.0  0.000   2769   0.59   1.00   1.00   0.06   0.00   0.00   0.00   1.00   2.47 1478.2   0.00      0   2769    274.2   0.00   0.00 0.9601   0.214   0.072   0.038   0.027   0.020   0.009   0.000   0.000   0.000   0.000      0      0      0       0       0  21.050  135.004
 2025 153   224   222  53.968     3  4.788   2545   2787      0   3199   8101   8101      0      0    0.0  0.000   2769   0.00   0.52   1.00   0.01   0.00   0.00   0.00   1.00   2.47 1465.6   0.00      0   2769    274.2   0.00   0.00 0.9643   0.213   0.072   0.038   0.027   0.020   0.009   0.000   0.000   0.000   0.000      0      0      0       0       0  15.800  150.804
 2025 154   225   223  55.284     3  4.753   2545   3063      0   3215   8377   8377      0      0    0.0  0.000   2769   0.00   0.65   1.00   0.00   0.00   0.00   0.00   1.00   2.47 1450.9   0.00      0   2769    274.2   0.00   0.00 0.9692   0.212   0.073   0.038   0.027   0.020   0.010   0.000   0.000   0.000   0.000      0      0      0       0       0  18.100  168.904
 2025 155   226   224  56.626     3  4.717   2545   3247      0   3218   8562   8562      0      0    0.0  0.000   2769   0.08   0.73   1.00   0.00   0.00   0.00   0.00   1.00   2.47 1435.3   0.00      0   2769    274.2   0.00   0.00 0.9741   0.212   0.074   0.037   0.027   0.020   0.010   0.000   0.000   0.000   0.000      0      0      0       0       0  18.450  187.354
 2025 156   227   225  57.858     3  4.684   2545   3430      0   3223   8744   8744      0      0    0.0  0.000   2769   0.21   0.84   1.00   0.00   0.00   0.00   0.00   1.00   2.47 1420.8   0.00      0   2769    274.2   0.00   0.00 0.9787   0.211   0.075   0.037   0.026   0.020   0.010   0.000   0.000   0.000   0.000      0      0      0       0       0  16.950  204.304
 2025 157   228   226  59.102     4  4.684   2545   3644      0   3215   8958   8958      0      0    0.0  0.000   2769   0.00   0.60   1.00   0.00   0.00   0.00   0.00   1.00   2.47 1420.8   0.00      0   2769    274.2   0.00   0.00 0.9832   0.211   0.076   0.037   0.026   0.019   0.010   0.000   0.000   0.000   0.000      0      0      0       0       0  16.850    1.154
 2025 158   229   227  60.531     4  4.625   2545   3856      0   3206   9170   9170      0      0    0.0  0.000   2769   0.00   0.65   1.00   0.00   0.00   0.00   0.00   1.00   2.47 1420.8   0.00      0   2769    274.2   0.00   0.00 0.9875   0.210   0.076   0.036   0.026   0.019   0.011   0.000   0.000   0.000   0.000      0      0      0       0       0  16.200   17.354
 2025 159   230   228  61.616     4  4.569   2545   4089      0   3200   9404   9404      0      0    0.0  0.000   2769   0.00   0.62   1.00   0.00   0.00   0.00   0.00   1.00   2.47 1420.8   0.00      0   2769    274.2   0.00   0.00 0.9908   0.209   0.076   0.036   0.026   0.019   0.011   0.000   0.000   0.000   0.000      0      0      0       0       0  12.300   29.654
 2025 160   231   229  62.689     4  4.526   2545   4382      0   3206   9696   9696      0      0    0.0  0.000   2769   0.14   0.78   1.00   0.00   0.00   0.00   0.00   1.00   2.47 1420.8   0.00      0   2769    274.2   0.00   0.00 0.9941   0.208   0.077   0.036   0.025   0.019   0.011   0.001   0.000   0.000   0.000      0      0      0       0       0  12.150   41.804
 2025 161   232   230  63.959     4  4.484   2545   4473      0   3192   9787   9787      0      0    0.0  0.000   2769   0.69   1.00   1.00   0.00   0.00   0.00   0.00   1.00   2.47 1420.8   0.00      0   2769    274.2   0.00   0.00 0.9980   0.206   0.078   0.035   0.025   0.019   0.011   0.001   0.000   0.000   0.000      0      0      0       0       0  14.400   56.204
 2025 162   233   231  65.356     4  4.403   2545   4538      0   3175   9852   9852      0      0    0.0  0.000   2769   0.80   1.00   1.00   0.00   0.00   0.00   0.00   1.00   2.47 1420.8   0.00      0   2769    274.2   0.00   0.00 1.0031   0.204   0.078   0.035   0.025   0.019   0.012   0.001   0.000   0.000   0.000      0      0      0       0       0  19.050   75.254
 2025 163   234   232  66.248     4  4.288   2545   4605      0   3157   9919   9919      0      0    0.0  0.000   2769   0.79   1.00   1.00   0.00   0.00   0.00   0.00   1.00   2.47 1420.8   0.00      0   2769    274.2   0.00   0.00 1.0079   0.202   0.077   0.035   0.025   0.018   0.012   0.001   0.000   0.000   0.000      0      0      0       0       0  18.200   93.454
 2025 164   235   233  67.275     4  4.179   2545   4667      0   3139   9981   9981      0      0    0.0  0.000   2769   0.78   1.00   1.36   0.00   0.00   0.00   0.00   1.00   2.47 1420.8   0.00      0   2769    274.2   0.00   0.00 1.0136   0.200   0.076   0.034   0.024   0.018   0.012   0.001   0.000   0.000   0.000      0      0      0       0       0  20.950  114.404
 2025 165   236   234  68.402     4  4.053   2545   4721      0   3119  10035  10035      0      0    0.0  0.000   2769   0.77   1.00   2.29   0.00   0.00   0.00   0.00   1.00   2.47 1420.8   0.00      0   2769    274.2   0.00   0.00 1.0197   0.198   0.075   0.034   0.024   0.018   0.013   0.001   0.000   0.000   0.000      0      0      0       0       0  23.000  137.403
 2025 166   237   235  69.498     4  3.871   2545   4908      0   3113  10222  10222      0      0    0.0  0.000   2769   0.17   0.81   1.00   0.00   0.00   0.00   0.00   1.00   2.47 1420.8   0.00      0   2769    274.2   0.00   0.00 1.0257   0.197   0.074   0.034   0.024   0.018   0.013   0.001   0.000   0.000   0.000      0      0      0       0       0  22.350  159.753
 2025 167   238   236  70.252     5  3.793   2545   4371    645   3087   9685  10329  12269  12269    5.3  0.062   2769   0.63   1.00   1.00   0.00   0.00   0.00   0.00   1.00   2.39 1420.8   0.00      0   2769    274.2   0.00   0.00 1.0309   0.197   0.074   0.033   0.024   0.018   0.013   0.001   0.000   0.000   0.000      0      0      0       0       0  19.050    8.803
 2025 168   239   237  70.764     5  3.789   2545   4272    825   3060   9586  10411  12269  12269    6.7  0.079   2769   0.75   1.00   1.00   0.00   0.00   0.00   0.00   1.00   2.31 1420.8   0.00      0   2769    274.2   0.00   0.00 1.0357   0.195   0.073   0.033   0.023   0.017   0.013   0.001   0.000   0.000   0.000      0      0      0       0       0  17.950   26.753
 2025 169   240   238  71.349     5  3.777   2545   4173   1001   3032   9487  10488  12269  12269    8.2  0.095   2769   0.74   1.00   1.40   0.00   0.00   0.00   0.00   1.00   2.22 1420.8   0.00      0   2769    274.2   0.00   0.00 1.0412   0.193   0.072   0.033   0.023   0.017   0.013   0.001   0.000   0.000   0.000      0      0      0       0       0  20.450   47.203
 2025 170   241   239  71.943     5  3.752   2545   4066   1186   3004   9380  10566  12269  12269    9.7  0.112   2769   0.73   1.00   1.24   0.00   0.00   0.00   0.00   1.00   2.13 1420.8   0.00      0   2769    274.2   0.00   0.00 1.0467   0.191   0.072   0.032   0.023   0.017   0.013   0.001   0.000   0.000   0.000      0      0      0       0       0  20.800   68.003
 2025 171   242   240  72.512     5  3.715   2545   3953   1387   2975   9267  10654  12269  12269   11.3  0.130   2769   0.72   1.00   1.00   0.00   0.00   0.00   0.00   1.00   2.04 1420.8   0.00      0   2769    274.2   0.00   0.00 1.0521   0.189   0.071   0.032   0.023   0.017   0.013   0.001   0.000   0.000   0.000      0      0      0       0       0  19.900   87.903
 2025 172   243   241  73.097     5  3.671   2545   3867   1555   2946   9182  10736  12269  12269   12.7  0.145   2769   0.71   1.00   1.64   0.00   0.00   0.00   0.00   1.00   1.95 1420.8   0.00      0   2769    274.2   0.00   0.00 1.0576   0.187   0.070   0.032   0.022   0.017   0.013   0.001   0.000   0.000   0.000      0      0      0       0       0  20.500  108.403
 2025 173   244   242  73.724     5  3.614   2545   3865   1632   2917   9179  10811  12269  12269   13.3  0.151   2769   0.70   1.00   2.56   0.00   0.00   0.00   0.00   1.00   1.88 1420.8   0.00      0   2769    274.2   0.00   0.00 1.0635   0.185   0.069   0.031   0.022   0.017   0.013   0.001   0.000   0.000   0.000      0      0      0       0       0  21.933  130.337
 2025 174   245   243  74.371     5  3.501   2545   3865   1699   2887   9179  10878  12269  12269   13.8  0.156   2769   0.70   1.00   1.43   0.00   0.00   0.00   0.00   1.00   1.82 1420.8   0.00      0   2769    274.2   0.00   0.00 1.0696   0.183   0.069   0.031   0.022   0.016   0.012   0.001   0.000   0.000   0.000      0      0      0       0       0  22.650  152.987
 2025 175   246   244  74.957     5  3.414   2545   3865   1787   2859   9179  10966  12269  12269   14.6  0.163   2769   0.69   1.00   1.00   0.00   0.00   0.00   0.00   1.00   1.74 1420.8   0.00      0   2769    274.2   0.00   0.00 1.0751   0.181   0.068   0.031   0.022   0.016   0.012   0.001   0.000   0.000   0.000      0      0      0       0       0  20.500  173.487
 2025 176   247   245  75.628     5  3.326   2545   3865   1860   2830   9179  11039  12269  12269   15.2  0.169   2769   0.68   1.00   2.23   0.00   0.00   0.00   0.00   1.00   1.68 1420.8   0.00      0   2769    274.2   0.00   0.00 1.0814   0.180   0.067   0.030   0.022   0.016   0.012   0.001   0.000   0.000   0.000      0      0      0       0       0  23.500  196.987
 2025 177   248   246  76.310     5  3.166   2545   3865   1919   2802   9179  11098  12269  12269   15.6  0.173   2769   0.67   1.00   1.73   0.00   0.00   0.00   0.00   1.00   1.63 1420.8   0.00      0   2769    274.2   0.00   0.00 1.0878   0.178   0.067   0.030   0.021   0.016   0.012   0.001   0.000   0.000   0.000      0      0      0       0       0  23.850  220.837
 2025 178   249   247  76.892     5  3.025   2545   3865   2026   2774   9179  11205  12269  12269   16.5  0.181   2769   0.39   0.99   1.00   0.00   0.00   0.00   0.00   1.00   1.55 1420.8   0.00      0   2769    274.2   0.00   0.00 1.0932   0.176   0.066   0.030   0.021   0.016   0.012   0.001   0.000   0.000   0.000      0      0      0       0       0  20.400  241.237
 2025 179   250   248  77.562     5  2.931   2545   3865   2108   2746   9179  11287  12269  12269   17.2  0.187   2769   0.62   1.00   1.41   0.00   0.00   0.00   0.00   1.00   1.48 1420.8   0.00      0   2769    274.2   0.00   0.00 1.0995   0.174   0.065   0.029   0.021   0.016   0.012   0.001   0.000   0.000   0.000      0      0      0       0       0  23.450  264.687
 2025 180   251   249  78.259     5  2.784   2545   3865   2175   2718   9179  11353  12269  12269   17.7  0.192   2769   0.64   1.00   2.45   0.00   0.00   0.00   0.00   1.00   1.43 1420.8   0.00      0   2769    274.2   0.00   0.00 1.1061   0.172   0.065   0.029   0.021   0.015   0.012   0.001   0.000   0.000   0.000      0      0      0       0       0  24.383  289.070
 2025 181   252   250  79.027     5  2.517   2545   3865   2233   2691   9179  11411  12269  12269   18.2  0.196   2769   0.63   1.00   2.36   0.00   0.00   0.00   0.00   1.00   1.38 1420.8   0.00      0   2769    274.2   0.00   0.00 1.1133   0.171   0.064   0.029   0.020   0.015   0.012   0.001   0.000   0.000   0.000      0      0      0       0       0  26.883  315.953
 2025 182   253   251  79.770     5  2.207   2545   3865   2312   2664   9179  11491  12269  12269   18.8  0.201   2769   0.38   0.98   2.66   0.00   0.00   0.00   0.00   1.00   1.32 1420.8   0.00      0   2769    274.2   0.00   0.00 1.1203   0.169   0.063   0.029   0.020   0.015   0.011   0.001   0.000   0.000   0.000      0      0      0       0       0  26.014  341.967
 2025 183   254   252  80.518     5  1.842   2545   3865   2357   2638   9179  11536  12269  12269   19.2  0.204   2769   0.61   1.00   3.04   0.00   0.00   0.00   0.00   1.00   1.28 1420.8   0.00      0   2769    274.2   0.00   0.00 1.1273   0.167   0.063   0.028   0.020   0.015   0.011   0.001   0.000   0.000   0.000      0      0      0       0       0  26.176  368.143
 2025 184   255   253  81.144     5  1.388   2545   3865   2405   2611   9179  11584  12269  12269   19.6  0.208   2769   0.61   1.00   1.00   0.00   0.00   0.00   0.00   1.00   1.24 1420.8   0.00      0   2769    274.2   0.00   0.00 1.1332   0.166   0.062   0.028   0.020   0.015   0.011   0.001   0.000   0.000   0.000      0      0      0       0       0  21.900  390.043
 2025 185   256   254  81.773     5  1.189   2545   3865   2457   2585   9179  11636  12269  12269   20.0  0.211   2769   0.60   1.00   1.01   0.00   0.00   0.00   0.00   1.00   1.20 1420.8   0.00      0   2769    274.2   0.00   0.00 1.1391   0.164   0.062   0.028   0.020   0.015   0.011   0.001   0.000   0.000   0.000      0      0      0       0       0  22.000  412.043
 2025 186   257   255  82.381     5  0.979   2545   3865   2501   2559   9179  11680  12269  12269   20.4  0.214   2769   0.59   1.00   1.82   0.00   0.00   0.00   0.00   1.00   1.17 1420.8   0.00      0   2769    274.2   0.00   0.00 1.1448   0.162   0.061   0.027   0.019   0.015   0.011   0.001   0.000   0.000   0.000      0      0      0       0       0  21.300  433.343
 2025 187   258   256  82.990     5  0.719   2545   3865   2528   2534   9179  11707  12269  12269   20.6  0.216   2769   0.58   1.00   1.00   0.00   0.00   0.00   0.00   1.00   1.15 1420.8   0.00      0   2769    274.2   0.00   0.00 1.1505   0.161   0.060   0.027   0.019   0.014   0.011   0.001   0.000   0.000   0.000      0      0      0       0       0  21.300  454.643
 2025 188   259   257  83.540     5  0.497   2545   3865   2551   2508   9179  11729  12269  12269   20.8  0.217   2769   0.58   1.00   1.00   0.00   0.00   0.00   0.00   1.00   1.13 1420.8   0.00      0   2769    274.2   0.00   0.00 1.1557   0.159   0.060   0.027   0.019   0.014   0.011   0.001   0.000   0.000   0.000      0      0      0       0       0  19.250  473.893
 2025 189   260   258  83.978     5  0.290   2545   3865   2566   2483   9179  11745  12269  12269   20.9  0.219   2769   0.52   1.00   1.00   0.00   0.00   0.00   0.00   1.00   1.12 1420.8   0.00      0   2769    274.2   0.00   0.00 1.1598   0.158   0.059   0.027   0.019   0.014   0.011   0.001   0.000   0.000   0.000      0      0      0       0       0  15.350  489.243
 2025 190   261   259  84.407     5  0.127   2545   3865   2574   2459   9179  11752  12269  12269   21.0  0.219   2769   0.55   1.00   1.00   0.00   0.00   0.00   0.00   1.00   1.12 1420.8   0.00      0   2769    274.2   0.00   0.00 1.1638   0.156   0.058   0.026   0.019   0.014   0.011   0.001   0.000   0.000   0.000      0      0      0       0       0  15.000  504.243
 2025 191   262   260  84.933     5  0.000   2545   3865   2574   2434   9179  11753  12269  12269   21.0  0.219   2769   0.56   1.00   1.00   0.00   0.00   0.00   0.00   1.00   1.12 1420.8   0.00      0   2769    274.2   0.00   0.00 1.1688   0.154   0.058   0.026   0.019   0.014   0.010   0.001   0.000   0.000   0.000      0      0      0       0       0  18.400  522.643
 2025 192   263   261  85.501     5  0.000   2545   3865   2574   2410   9180  11753  12269  12269   21.0  0.219   2769   0.55   1.00   1.00   0.00   0.00   0.00   0.00   1.00   1.12 1420.8   0.00      0   2769    274.2   0.00   0.00 1.1741   0.153   0.057   0.026   0.018   0.014   0.010   0.001   0.000   0.000   0.000      0      0      0       0       0  19.900  542.543
 2025 193   264   262  86.057     5  0.000   2545   3866   2574   2386   9180  11753  12269  12269   21.0  0.219   2769   0.54   1.00   1.00   0.00   0.00   0.00   0.00   1.00   1.12 1420.8   0.00      0   2769    274.2   0.00   0.00 1.1793   0.151   0.057   0.026   0.018   0.014   0.010   0.001   0.000   0.000   0.000      0      0      0       0       0  19.450  561.993
 2025 194   265   263  86.658     5  0.000   2545   3866   2574   2362   9180  11754  12269  12269   21.0  0.219   2769   0.54   1.00   1.41   0.00   0.00   0.00   0.00   1.00   1.12 1420.8   0.00      0   2769    274.2   0.00   0.00 1.1850   0.150   0.056   0.025   0.018   0.013   0.010   0.001   0.000   0.000   0.000      0      0      0       0       0  21.050  583.043
 2025 195   266   264  87.210     5  0.000   2545   3866   2574   2338   9181  11754  12269  12269   21.0  0.219   2769   0.00   0.57   1.00   0.00   0.00   0.00   0.00   1.00   1.12 1420.8   0.00      0   2769    274.2   0.00   0.00 1.1902   0.148   0.056   0.025   0.018   0.013   0.010   0.001   0.000   0.000   0.000      0      0      0       0       0  19.300  602.343
 2025 196   267   265  87.798     5  0.000   2545   3867   2574   2315   9181  11755  12269  12269   21.0  0.219   2769   0.01   0.67   1.00   0.00   0.00   0.00   0.00   1.00   1.12 1420.8   0.00      0   2769    274.2   0.00   0.00 1.1957   0.147   0.055   0.025   0.018   0.013   0.010   0.001   0.000   0.000   0.000      0      0      0       0       0  20.600  622.943
 2025 197   268   266  88.278     5  0.000   2545   3867   2574   2292   9181  11755  12269  12269   21.0  0.219   2769   0.00   0.00   1.00   0.00   0.00   0.00   0.00   1.00   1.12 1420.8   0.00      0   2769    274.2   0.00   0.00 1.2002   0.145   0.055   0.025   0.017   0.013   0.010   0.001   0.000   0.000   0.000      0      0      0       0       0  16.800  639.743
 2025 198   269   267  88.691     5  0.000   2545   3868   2574   2269   9182  11755  12269  12269   21.0  0.219   2769   0.00   0.09   1.00   0.00   0.00   0.00   0.00   1.00   1.12 1420.8   0.00      0   2769    274.2   0.00   0.00 1.2023   0.144   0.054   0.024   0.017   0.013   0.010   0.001   0.000   0.000   0.000      0      0      0       0       0  14.450  654.193
 2025 199   270   268  89.227     5  0.000   2545   3868   2574   2246   9182  11756  12269  12269   21.0  0.219   2769   0.00   0.26   1.00   0.00   0.00   0.00   0.00   1.00   1.12 1420.8   0.00      0   2769    274.2   0.00   0.00 1.2051   0.142   0.053   0.024   0.017   0.013   0.010   0.001   0.000   0.000   0.000      0      0      0       0       0  18.750  672.943
 2025 200   271   269  89.817     5  0.000   2545   3868   2574   2223   9183  11756  12269  12269   21.0  0.219   2769   0.00   0.27   1.00   0.00   0.00   0.00   0.00   1.00   1.12 1420.8   0.00      0   2769    274.2   0.00   0.00 1.2081   0.141   0.053   0.024   0.017   0.013   0.010   0.001   0.000   0.000   0.000      0      0      0       0       0  20.650  693.593
 2025 201   272   270  90.000     6  0.000   2545   3868   2574   2201   9183  11756  12269  12269   21.0  0.219   2769   0.00   0.27   1.00   0.00   0.00   0.00   0.00   1.00   1.12 1420.8   0.00      0   2769    274.2   0.00   0.00 1.2081   0.140   0.052   0.024   0.017   0.013   0.009   0.001   0.000   0.000   0.000      0      0      0       0       0  21.750   15.343
 2025 202   273   271  90.000     7  0.000   2545   3868   2574   2201   9183  11756  12269  12269   21.0  0.219   2769   0.00   0.27   1.00   0.00   0.00   0.00   0.00   1.00   1.12 1420.8   0.00      0   2769    274.2   0.00   0.00 1.2081   0.140   0.052   0.024   0.017   0.013   0.009   0.001   0.000   0.000   0.000      0      0      0       0       0  18.100    9.450
