*GROWTH ASPECTS OUTPUT FILE

*DSSAT Cropping System Model Ver. 4.8.2.000 -release  DEC 15, 2025 04:12:05

*RUN   1        : No N                      WHAPS048 HWOC2501    1
 MODEL          : WHAPS048 - Wheat
 EXPERIMENT     : HWOC2501 WH
 DATA PATH      : C:/DSSAT48/Wheat/
 TREATMENT  1   : No N                      WHAPS048
  
!                                                                                                                                                                                                                                             Root Dens. (cm/cm3) by soil depth (cm):
!                                                                                                                                                                                                                                             0-5    5-15   15-30   30-45   45-60   60-90  90-120 120-150 150-180 180-210
@YEAR DOY   DAS   DAP    DCCD  GSTD   LAID   LWAD   SWAD   GWAD   RWAD   VWAD   CWAD   G#AD   G#AD2  GWGD   HIAD   SHAD   WSPD   WSGD   SLFT   NSTD   EWSD  PST1A  PST2A   KSTD   LN%D   TPSM   HIPD   PWDD   PWTD     SLAD   CHTD   CWID   RDPD    RL1D    RL2D    RL3D    RL4D    RL5D    RL6D    RL7D    RL8D    RL9D   RL10D   CDAD   LDAD   SDAD   SNW0C   SNW1C    DTTD   SUMDTT
 2024 297     2     0   0.000     8  0.000      0      0      0      0      0      0      0      0    0.0  0.000      0   0.00   0.00   0.00   0.00   0.00   0.00   0.00   1.00   0.00    0.0   0.00      0      0      0.0   0.00   0.00 0.0030   0.000   0.000   0.000   0.000   0.000   0.000   0.000   0.000   0.000   0.000      0      0      0       0       0   9.450    0.000
 2024 298     3     1   0.000     8  0.000      0      0      0      0      0      0      0      0    0.0  0.000      0   0.00   0.00   0.00   0.00   0.00   0.00   0.00   1.00   0.00    0.0   0.00      0      0      0.0   0.00   0.00 0.0030   0.000   0.000   0.000   0.000   0.000   0.000   0.000   0.000   0.000   0.000      0      0      0       0       0  10.500   10.500
 2024 299     4     2   2.739     9  0.000      0      0      0      0      0      0      0      0    0.0  0.000      0   0.00   0.00   0.00   0.00   0.00   0.00   0.00   1.00   0.00    0.0   0.00      0      0      0.0   0.00   0.00 0.0030   0.000   0.000   0.000   0.000   0.000   0.000   0.000   0.000   0.000   0.000      0      0      0       0       0  11.450   11.450
 2024 300     5     3   5.311     9  0.000      0      0      0      0      0      0      0      0    0.0  0.000      0   0.00   0.00   0.00   0.00   0.00   0.00   0.00   1.00   0.00    0.0   0.00      0      0      0.0   0.00   0.00 0.0144   0.000   0.000   0.000   0.000   0.000   0.000   0.000   0.000   0.000   0.000      0      0      0       0       0  10.750   22.200
 2024 301     6     4   8.086     9  0.000      0      0      0      0      0      0      0      0    0.0  0.000      0   0.00   0.00   0.00   0.00   0.00   0.00   0.00   1.00   0.00    0.0   0.00      0      0      0.0   0.00   0.00 0.0252   0.000   0.000   0.000   0.000   0.000   0.000   0.000   0.000   0.000   0.000      0      0      0       0       0  11.600   33.800
 2024 302     7     5  10.233     1  0.017     14      0      0     23     15     15      0      0    0.0  0.000      1   0.00   0.00   1.00   0.00   0.00   0.00   0.00   1.00   3.87  380.0   0.00      0      1    299.3   0.00   0.00 0.0646   0.037   0.004   0.000   0.000   0.000   0.000   0.000   0.000   0.000   0.000      0      0      0       0       0  12.650    4.650
 2024 303     8     6  10.233     1  0.019     23      0      0     23     25     25      0      0    0.0  0.000      1   0.00   0.00   1.00   0.00   0.00   0.00   0.00   1.00   3.88  380.0   0.00      0      1    299.3   0.00   0.00 0.0939   0.036   0.004   0.000   0.000   0.000   0.000   0.000   0.000   0.000   0.000      0      0      0       0       0  13.300    4.650
 2024 304     9     7  10.233     1  0.021     33      0      0     24     35     35      0      0    0.0  0.000      2   0.00   0.00   1.00   0.00   0.00   0.00   0.00   1.00   4.46  380.0   0.00      0      2    299.3   0.00   0.00 0.1194   0.036   0.004   0.000   0.000   0.000   0.000   0.000   0.000   0.000   0.000      0      0      0       0       0  11.600    4.650
 2024 305    10     8  10.233     1  0.022     43      0      0     24     46     46      0      0    0.0  0.000      2   0.00   0.00   1.00   0.00   0.00   0.00   0.00   1.00   4.88  380.0   0.00      0      2    299.3   0.00   0.00 0.1416   0.036   0.004   0.000   0.000   0.000   0.000   0.000   0.000   0.000   0.000      0      0      0       0       0  10.100    4.650
 2024 306    11     9  10.233     1  0.023     49      0      0     24     52     52      0      0    0.0  0.000      3   0.00   0.00   1.00   0.00   0.00   0.00   0.00   1.00   5.52  380.0   0.00      0      3    299.3   0.00   0.00 0.1578   0.035   0.004   0.000   0.000   0.000   0.000   0.000   0.000   0.000   0.000      0      0      0       0       0   7.350    4.650
 2024 307    12    10  10.235     1  0.024     56      0      0     24     60     60      0      0    0.0  0.000      3   0.00   0.00   1.00   0.00   0.00   0.00   0.00   1.00   5.54  380.0   0.00      0      3    299.3   0.00   0.00 0.1683   0.035   0.004   0.000   0.000   0.000   0.000   0.000   0.000   0.000   0.000      0      0      0       0       0   7.500    4.703
 2024 308    13    11  10.244     1  0.027     58      0      0     24     62     62      0      0    0.0  0.000      4   0.00   0.00   1.00   0.00   0.00   0.00   0.00   1.00   6.15  380.0   0.00      0      4    299.3   0.00   0.00 0.1781   0.035   0.004   0.000   0.000   0.000   0.000   0.000   0.000   0.000   0.000      0      0      0       0       0   6.950    4.884
 2024 309    14    12  10.259     1  0.029     59      0      0     25     64     64      0      0    0.0  0.000      5   0.00   0.00   1.00   0.00   0.00   0.00   0.00   1.00   6.24  380.0   0.00      0      5    299.2   0.00   0.00 0.1868   0.034   0.004   0.000   0.000   0.000   0.000   0.000   0.000   0.000   0.000      0      0      0       0       0   6.200    5.172
 2024 310    15    13  10.272     1  0.031     59      0      0     25     65     65      0      0    0.0  0.000      5   0.00   0.00   1.00   0.00   0.00   0.00   0.00   1.00   6.29  380.0   0.00      0      5    299.2   0.00   0.00 0.1920   0.034   0.004   0.000   0.000   0.000   0.000   0.000   0.000   0.000   0.000      0      0      0       0       0   3.700    5.434
 2024 311    16    14  10.304     1  0.032     60      0      0     25     66     66      0      0    0.0  0.000      6   0.00   0.00   1.00   0.00   0.00   0.00   0.00   1.00   6.29  380.0   0.00      0      6    299.1   0.00   0.00 0.2020   0.034   0.004   0.000   0.000   0.000   0.000   0.000   0.000   0.000   0.000      0      0      0       0       0   7.150    6.075
 2024 312    17    15  10.335     1  0.033     60      0      0     25     67     67      0      0    0.0  0.000      6   0.00   0.00   1.00   0.00   0.00   0.00   0.00   1.00   6.28  380.0   0.00      0      6    299.0   0.00   0.00 0.2100   0.034   0.004   0.000   0.000   0.000   0.000   0.000   0.000   0.000   0.000      0      0      0       0       0   5.700    6.707
 2024 313    18    16  10.366     1  0.034     61      0      0     25     67     67      0      0    0.0  0.000      6   0.00   0.00   1.00   0.00   0.00   0.00   0.00   1.00   6.28  380.0   0.00      0      6    298.9   0.00   0.00 0.2165   0.033   0.004   0.000   0.000   0.000   0.000   0.000   0.000   0.000   0.000      0      0      0       0       0   4.650    7.329
 2024 314    19    17  10.396     1  0.035     61      0      0     25     68     68      0      0    0.0  0.000      7   0.00   0.00   1.00   0.00   0.00   0.00   0.00   1.00   6.27  380.0   0.00      0      7    298.8   0.00   0.00 0.2218   0.033   0.004   0.000   0.000   0.000   0.000   0.000   0.000   0.000   0.000      0      0      0       0       0   3.750    7.922
 2024 315    20    18  10.436     1  0.037     61      0      0     26     69     69      0      0    0.0  0.000      7   0.00   0.00   1.00   0.00   0.00   0.00   0.00   1.00   6.27  380.0   0.00      0      7    298.7   0.00   0.00 0.2279   0.033   0.004   0.000   0.000   0.000   0.000   0.000   0.000   0.000   0.000      0      0      0       0       0   4.350    8.710
 2024 316    21    19  10.472     1  0.037     62      0      0     25     69     69      0      0    0.0  0.000      7   0.00   0.00   1.00   0.00   0.00   0.00   0.00   1.00   6.28  380.0   0.00      0      7    298.6   0.00   0.00 0.2329   0.032   0.004   0.000   0.000   0.000   0.000   0.000   0.000   0.000   0.000      0      0      0       0       0   3.560    9.443
 2024 317    22    20  10.511     1  0.039     62      0      0     26     70     70      0      0    0.0  0.000      8   0.00   0.00   1.00   0.00   0.00   0.00   0.00   1.00   6.25  380.0   0.00      0      8    298.5   0.00   0.00 0.2377   0.032   0.004   0.000   0.000   0.000   0.000   0.000   0.000   0.000   0.000      0      0      0       0       0   3.428   10.227
 2024 318    23    21  10.537     1  0.039     62      0      0     26     71     71      0      0    0.0  0.000      8   0.00   0.00   1.00   0.00   0.00   0.00   0.00   1.00   6.27  380.0   0.00      0      8    298.4   0.00   0.00 0.2406   0.032   0.004   0.000   0.000   0.000   0.000   0.000   0.000   0.000   0.000      0      0      0       0       0   2.076   10.741
 2024 319    24    22  10.571     1  0.040     63      0      0     26     71     71      0      0    0.0  0.000      8   0.00   0.00   1.00   0.00   0.00   0.00   0.00   1.00   6.26  380.0   0.00      0      8    298.3   0.00   0.00 0.2446   0.031   0.004   0.000   0.000   0.000   0.000   0.000   0.000   0.000   0.000      0      0      0       0       0   2.800   11.417
 2024 320    25    23  10.621     1  0.042     63      0      0     26     72     72      0      0    0.0  0.000      9   0.00   0.00   1.00   0.00   0.00   0.00   0.00   1.00   6.24  380.0   0.00      0      9    298.2   0.00   0.00 0.2505   0.031   0.004   0.000   0.000   0.000   0.000   0.000   0.000   0.000   0.000      0      0      0       0       0   4.250   12.416
 2024 321    26    24  10.665     1  0.044     64      0      0     26     74     74      0      0    0.0  0.000     10   0.00   0.00   1.00   0.00   0.00   0.00   0.00   1.00   6.21  380.0   0.00      0     10    298.1   0.00   0.00 0.2560   0.031   0.004   0.000   0.000   0.000   0.000   0.000   0.000   0.000   0.000      0      0      0       0       0   3.906   13.310
 2024 322    27    25  10.708     1  0.045     64      0      0     26     75     75      0      0    0.0  0.000     10   0.00   0.00   1.00   0.00   0.00   0.00   0.00   1.00   6.24  380.0   0.00      0     10    297.9   0.00   0.00 0.2614   0.030   0.004   0.000   0.000   0.000   0.000   0.000   0.000   0.000   0.000      0      0      0       0       0   3.819   14.160
 2024 323    28    26  10.753     1  0.046     65      0      0     26     75     75      0      0    0.0  0.000     10   0.00   0.00   1.00   0.00   0.00   0.00   0.00   1.00   6.23  380.0   0.00      0     10    297.8   0.00   0.00 0.2672   0.030   0.004   0.000   0.000   0.000   0.000   0.000   0.000   0.000   0.000      0      0      0       0       0   4.150   15.060
 2024 324    29    27  10.827     1  0.047     65      0      0     26     76     76      0      0    0.0  0.000     11   0.00   0.00   1.00   0.00   0.00   0.00   0.00   1.00   6.21  380.0   0.00      0     11    297.6   0.00   0.00 0.2771   0.030   0.004   0.000   0.000   0.000   0.000   0.000   0.000   0.000   0.000      0      0      0       0       0   7.050   16.547
 2024 325    30    28  10.863     1  0.049     66      0      0     26     77     77      0      0    0.0  0.000     11   0.00   0.00   1.00   0.00   0.00   0.00   0.00   1.00   6.21  380.0   0.00      0     11    297.5   0.00   0.00 0.2820   0.030   0.004   0.000   0.000   0.000   0.000   0.000   0.000   0.000   0.000      0      0      0       0       0   3.478   17.261
 2024 326    31    29  10.872     1  0.049     66      0      0     26     77     77      0      0    0.0  0.000     11   0.00   0.00   1.00   0.00   0.00   0.00   0.00   1.00   6.25  380.0   0.00      0     11    297.5   0.00   0.00 0.2832   0.029   0.004   0.000   0.000   0.000   0.000   0.000   0.000   0.000   0.000      0      0      0       0       0   0.865   17.433
 2024 327    32    30  10.874     1  0.049     66      0      0     26     77     77      0      0    0.0  0.000     11   0.00   0.00   1.00   0.00   0.00   0.00   0.00   1.00   6.25  380.0   0.00      0     11    297.5   0.00   0.00 0.2835   0.029   0.004   0.000   0.000   0.000   0.000   0.000   0.000   0.000   0.000      0      0      0       0       0   0.222   17.477
 2024 328    33    31  10.896     1  0.050     66      0      0     26     78     78      0      0    0.0  0.000     12   0.00   0.00   1.00   0.00   0.00   0.00   0.00   1.00   6.20  380.0   0.00      0     12    297.4   0.00   0.00 0.2868   0.029   0.004   0.000   0.000   0.000   0.000   0.000   0.000   0.000   0.000      0      0      0       0       0   2.328   17.916
 2024 329    34    32  10.953     1  0.053     67      0      0     27     80     80      0      0    0.0  0.000     13   0.00   0.00   1.00   0.00   0.00   0.00   0.00   1.00   6.15  380.0   0.00      0     13    297.3   0.00   0.00 0.2955   0.028   0.004   0.000   0.000   0.000   0.000   0.000   0.000   0.000   0.000      0      0      0       0       0   6.200   19.054
 2024 330    35    33  11.014     1  0.057     68      0      0     27     83     83      0      0    0.0  0.000     14   0.00   0.00   1.00   0.00   0.00   0.00   0.00   1.00   6.12  380.0   0.00      0     14    297.1   0.00   0.00 0.3052   0.028   0.004   0.000   0.000   0.000   0.000   0.000   0.000   0.000   0.000      0      0      0       0       0   6.900   20.286
 2024 331    36    34  11.070     1  0.060     69      0      0     28     84     84      0      0    0.0  0.000     15   0.00   0.00   1.00   0.00   0.00   0.00   0.00   1.00   6.15  380.0   0.00      0     15    297.0   0.00   0.00 0.3118   0.028   0.004   0.000   0.000   0.000   0.000   0.000   0.000   0.000   0.000      0      0      0       0       0   6.400   21.397
 2024 332    37    35  11.119     1  0.063     70      0      0     29     87     87      0      0    0.0  0.000     16   0.00   0.00   1.00   0.00   0.00   0.00   0.00   1.00   6.12  380.0   0.00      0     16    296.8   0.00   0.00 0.3178   0.028   0.004   0.000   0.000   0.000   0.000   0.000   0.000   0.000   0.000      0      0      0       0       0   5.800   22.376
 2024 333    38    36  11.160     1  0.065     71      0      0     29     88     88      0      0    0.0  0.000     17   0.00   0.00   1.00   0.00   0.00   0.00   0.00   1.00   6.14  380.0   0.00      0     17    296.7   0.00   0.00 0.3231   0.027   0.004   0.000   0.000   0.000   0.000   0.000   0.000   0.000   0.000      0      0      0       0       0   5.050   23.205
 2024 334    39    37  11.183     1  0.067     72      0      0     29     90     90      0      0    0.0  0.000     17   0.00   0.00   1.00   0.00   0.00   0.00   0.00   1.00   6.16  380.0   0.00      0     17    296.7   0.00   0.00 0.3260   0.027   0.004   0.000   0.000   0.000   0.000   0.000   0.000   0.000   0.000      0      0      0       0       0   2.834   23.657
 2024 335    40    38  11.202     1  0.069     73      0      0     31     91     91      0      0    0.0  0.000     18   0.00   0.00   1.00   0.00   0.00   0.00   0.00   1.00   6.15  380.0   0.00      0     18    296.6   0.00   0.00 0.3286   0.027   0.004   0.000   0.000   0.000   0.000   0.000   0.000   0.000   0.000      0      0      0       0       0   2.479   24.043
 2024 336    41    39  11.205     1  0.069     73      0      0     30     91     91      0      0    0.0  0.000     18   0.00   0.00   1.00   0.00   0.00   0.00   0.00   1.00   6.21  380.0   0.00      0     18    296.6   0.00   0.00 0.3290   0.027   0.004   0.000   0.000   0.000   0.000   0.000   0.000   0.000   0.000      0      0      0       0       0   0.358   24.097
 2024 337    42    40  11.224     1  0.071     73      0      0     30     92     92      0      0    0.0  0.000     19   0.00   0.00   1.00   0.00   0.00   0.00   0.00   1.00   6.17  380.0   0.00      0     19    296.5   0.00   0.00 0.3317   0.027   0.004   0.000   0.000   0.000   0.000   0.000   0.000   0.000   0.000      0      0      0       0       0   2.605   24.481
 2024 338    43    41  11.250     1  0.072     74      0      0     30     93     93      0      0    0.0  0.000     19   0.00   0.00   1.00   0.00   0.00   0.00   0.00   1.00   6.16  380.0   0.00      0     19    296.5   0.00   0.00 0.3354   0.026   0.004   0.000   0.000   0.000   0.000   0.000   0.000   0.000   0.000      0      0      0       0       0   3.600   24.998
 2024 339    44    42  11.263     1  0.073     74      0      0     31     94     94      0      0    0.0  0.000     19   0.00   0.00   1.00   0.00   0.00   0.00   0.00   1.00   6.18  380.0   0.00      0     19    296.4   0.00   0.00 0.3373   0.026   0.003   0.000   0.000   0.000   0.000   0.000   0.000   0.000   0.000      0      0      0       0       0   1.805   25.251
 2024 340    45    43  11.272     1  0.073     74      0      0     30     94     94      0      0    0.0  0.000     19   0.00   0.00   1.00   0.00   0.00   0.00   0.00   1.00   6.20  380.0   0.00      0     19    296.4   0.00   0.00 0.3387   0.026   0.003   0.000   0.000   0.000   0.000   0.000   0.000   0.000   0.000      0      0      0       0       0   1.383   25.440
 2024 341    46    44  11.301     1  0.075     74      0      0     30     95     95      0      0    0.0  0.000     20   0.00   0.00   1.00   0.00   0.00   0.00   0.00   1.00   6.16  380.0   0.00      0     20    296.3   0.00   0.00 0.3432   0.026   0.003   0.000   0.000   0.000   0.000   0.000   0.000   0.000   0.000      0      0      0       0       0   4.300   26.013
 2024 342    47    45  11.318     1  0.076     75      0      0     30     95     95      0      0    0.0  0.000     20   0.00   0.00   1.00   0.00   0.00   0.00   0.00   1.00   6.16  380.0   0.00      0     20    296.3   0.00   0.00 0.3459   0.025   0.003   0.000   0.000   0.000   0.000   0.000   0.000   0.000   0.000      0      0      0       0       0   2.600   26.352
 2024 343    48    46  11.336     1  0.077     75      0      0     31     96     96      0      0    0.0  0.000     21   0.00   0.00   1.00   0.00   0.00   0.00   0.00   1.00   6.15  380.0   0.00      0     21    296.2   0.00   0.00 0.3489   0.025   0.003   0.000   0.000   0.000   0.000   0.000   0.000   0.000   0.000      0      0      0       0       0   2.907   26.723
 2024 344    49    47  11.349     1  0.078     75      0      0     31     97     97      0      0    0.0  0.000     21   0.00   0.00   1.00   0.00   0.00   0.00   0.00   1.00   6.16  380.0   0.00      0     21    296.2   0.00   0.00 0.3510   0.025   0.003   0.000   0.000   0.000   0.000   0.000   0.000   0.000   0.000      0      0      0       0       0   2.009   26.973
 2024 345    50    48  11.358     1  0.078     75      0      0     30     97     97      0      0    0.0  0.000     21   0.00   0.00   1.00   0.00   0.00   0.00   0.00   1.00   6.18  380.0   0.00      0     21    296.2   0.00   0.00 0.3525   0.025   0.003   0.000   0.000   0.000   0.000   0.000   0.000   0.000   0.000      0      0      0       0       0   1.485   27.155
 2024 346    51    49  11.367     1  0.078     76      0      0     30     97     97      0      0    0.0  0.000     21   0.00   0.00   1.00   0.00   0.00   0.00   0.00   1.00   6.18  380.0   0.00      0     21    296.2   0.00   0.00 0.3540   0.024   0.003   0.000   0.000   0.000   0.000   0.000   0.000   0.000   0.000      0      0      0       0       0   1.474   27.332
 2024 347    52    50  11.372     1  0.078     76      0      0     30     97     97      0      0    0.0  0.000     21   0.00   0.00   1.00   0.00   0.00   0.00   0.00   1.00   6.19  380.0   0.00      0     21    296.2   0.00   0.00 0.3551   0.024   0.003   0.000   0.000   0.000   0.000   0.000   0.000   0.000   0.000      0      0      0       0       0   0.970   27.447
 2024 348    53    51  11.375     1  0.078     76      0      0     30     97     97      0      0    0.0  0.000     21   0.00   0.00   1.00   0.00   0.00   0.00   0.00   1.00   6.19  380.0   0.00      0     21    296.1   0.00   0.00 0.3555   0.024   0.003   0.000   0.000   0.000   0.000   0.000   0.000   0.000   0.000      0      0      0       0       0   0.474   27.502
 2024 349    54    52  11.382     1  0.078     76      0      0     29     97     97      0      0    0.0  0.000     21   0.00   0.00   1.00   0.00   0.00   0.00   0.00   1.00   6.19  380.0   0.00      0     21    296.1   0.00   0.00 0.3568   0.024   0.003   0.000   0.000   0.000   0.000   0.000   0.000   0.000   0.000      0      0      0       0       0   1.184   27.638
 2024 350    55    53  11.392     1  0.079     76      0      0     29     98     98      0      0    0.0  0.000     21   0.00   0.00   1.00   0.00   0.00   0.00   0.00   1.00   6.16  380.0   0.00      0     21    296.1   0.00   0.00 0.3586   0.023   0.003   0.000   0.000   0.000   0.000   0.000   0.000   0.000   0.000      0      0      0       0       0   1.767   27.838
 2024 351    56    54  11.415     1  0.081     76      0      0     29     99     99      0      0    0.0  0.000     22   0.00   0.00   1.00   0.00   0.00   0.00   0.00   1.00   6.14  380.0   0.00      0     22    296.0   0.00   0.00 0.3629   0.023   0.003   0.000   0.000   0.000   0.000   0.000   0.000   0.000   0.000      0      0      0       0       0   4.100   28.297
 2024 352    57    55  11.439     1  0.083     77      0      0     30    100    100      0      0    0.0  0.000     23   0.00   0.00   1.00   0.00   0.00   0.00   0.00   1.00   6.12  380.0   0.00      0     23    296.0   0.00   0.00 0.3674   0.023   0.003   0.000   0.000   0.000   0.000   0.000   0.000   0.000   0.000      0      0      0       0       0   4.350   28.780
 2024 353    58    56  11.466     1  0.085     78      0      0     30    102    102      0      0    0.0  0.000     24   0.00   0.00   1.00   0.00   0.00   0.00   0.00   1.00   6.07  380.0   0.00      0     24    295.9   0.00   0.00 0.3725   0.023   0.003   0.000   0.000   0.000   0.000   0.000   0.000   0.000   0.000      0      0      0       0       0   4.900   29.320
 2024 354    59    57  11.501     1  0.088     79      0      0     31    104    104      0      0    0.0  0.000     24   0.00   0.00   1.00   0.00   0.00   0.00   0.00   1.00   6.02  380.0   0.00      0     24    295.8   0.00   0.00 0.3792   0.023   0.003   0.000   0.000   0.000   0.000   0.000   0.000   0.000   0.000      0      0      0       0       0   6.450   30.027
 2024 355    60    58  11.510     1  0.088     79      0      0     31    104    104      0      0    0.0  0.000     25   0.00   0.00   1.00   0.00   0.00   0.00   0.00   1.00   6.03  380.0   0.00      0     25    295.8   0.00   0.00 0.3809   0.022   0.003   0.000   0.000   0.000   0.000   0.000   0.000   0.000   0.000      0      0      0       0       0   1.655   30.208
 2024 356    61    59  11.522     1  0.090     79      0      0     31    105    105      0      0    0.0  0.000     25   0.00   0.00   1.00   0.00   0.00   0.00   0.00   1.00   6.01  380.0   0.00      0     25    295.8   0.00   0.00 0.3832   0.022   0.003   0.000   0.000   0.000   0.000   0.000   0.000   0.000   0.000      0      0      0       0       0   2.175   30.445
 2024 357    62    60  11.541     1  0.091     80      0      0     31    106    106      0      0    0.0  0.000     25   0.00   0.00   1.00   0.00   0.00   0.00   0.00   1.00   6.00  380.0   0.00      0     25    295.7   0.00   0.00 0.3867   0.022   0.003   0.000   0.000   0.000   0.000   0.000   0.000   0.000   0.000      0      0      0       0       0   3.388   30.815
 2024 358    63    61  11.549     1  0.091     80      0      0     31    106    106      0      0    0.0  0.000     26   0.00   0.00   1.00   0.00   0.00   0.00   0.00   1.00   6.00  380.0   0.00      0     26    295.7   0.00   0.00 0.3882   0.022   0.003   0.000   0.000   0.000   0.000   0.000   0.000   0.000   0.000      0      0      0       0       0   1.456   30.975
 2024 359    64    62  11.561     1  0.093     80      0      0     31    107    107      0      0    0.0  0.000     26   0.00   0.00   1.00   0.00   0.00   0.00   0.00   1.00   5.97  380.0   0.00      0     26    295.7   0.00   0.00 0.3905   0.021   0.003   0.000   0.000   0.000   0.000   0.000   0.000   0.000   0.000      0      0      0       0       0   2.199   31.216
 2024 360    65    63  11.571     1  0.094     81      0      0     31    108    108      0      0    0.0  0.000     26   0.00   0.00   1.00   0.00   0.00   0.00   0.00   1.00   5.96  380.0   0.00      0     26    295.6   0.00   0.00 0.3924   0.021   0.003   0.000   0.000   0.000   0.000   0.000   0.000   0.000   0.000      0      0      0       0       0   1.911   31.428
 2024 361    66    64  11.575     1  0.094     81      0      0     31    108    108      0      0    0.0  0.000     26   0.00   0.00   1.00   0.00   0.00   0.00   0.00   1.00   5.97  380.0   0.00      0     26    295.6   0.00   0.00 0.3932   0.021   0.003   0.000   0.000   0.000   0.000   0.000   0.000   0.000   0.000      0      0      0       0       0   0.706   31.507
 2024 362    67    65  11.578     1  0.094     81      0      0     30    108    108      0      0    0.0  0.000     26   0.00   0.00   1.00   0.00   0.00   0.00   0.00   1.00   5.98  380.0   0.00      0     26    295.6   0.00   0.00 0.3937   0.021   0.003   0.000   0.000   0.000   0.000   0.000   0.000   0.000   0.000      0      0      0       0       0   0.495   31.563
 2024 363    68    66  11.582     1  0.094     81      0      0     30    108    108      0      0    0.0  0.000     26   0.00   0.00   1.00   0.00   0.00   0.00   0.00   1.00   6.00  380.0   0.00      0     26    295.6   0.00   0.00 0.3945   0.021   0.003   0.000   0.000   0.000   0.000   0.000   0.000   0.000   0.000      0      0      0       0       0   0.731   31.646
 2024 364    69    67  11.584     1  0.094     81      0      0     30    108    108      0      0    0.0  0.000     26   0.00   0.00   1.00   0.00   0.00   0.00   0.00   1.00   6.01  380.0   0.00      0     26    295.6   0.00   0.00 0.3948   0.020   0.003   0.000   0.000   0.000   0.000   0.000   0.000   0.000   0.000      0      0      0       0       0   0.319   31.683
 2024 365    70    68  11.586     1  0.094     81      0      0     30    108    108      0      0    0.0  0.000     26   0.00   0.00   1.00   0.00   0.00   0.00   0.00   1.00   6.02  380.0   0.00      0     26    295.6   0.00   0.00 0.3951   0.020   0.003   0.000   0.000   0.000   0.000   0.000   0.000   0.000   0.000      0      0      0       0       0   0.313   31.720
 2024 366    71    69  11.588     1  0.094     81      0      0     29    108    108      0      0    0.0  0.000     26   0.00   0.00   1.00   0.00   0.00   0.00   0.00   1.00   6.03  380.0   0.00      0     26    295.6   0.00   0.00 0.3954   0.020   0.003   0.000   0.000   0.000   0.000   0.000   0.000   0.000   0.000      0      0      0       0       0   0.319   31.758
 2025 001    72    70  11.599     1  0.094     81      0      0     29    108    108      0      0    0.0  0.000     26   0.00   0.00   1.00   0.00   0.00   0.00   0.00   1.00   6.04  380.0   0.00      0     26    295.6   0.00   0.00 0.3973   0.020   0.003   0.000   0.000   0.000   0.000   0.000   0.000   0.000   0.000      0      0      0       0       0   1.794   31.973
 2025 002    73    71  11.610     1  0.095     81      0      0     29    108    108      0      0    0.0  0.000     27   0.00   0.00   1.00   0.00   0.00   0.00   0.00   1.00   6.02  380.0   0.00      0     27    295.5   0.00   0.00 0.3992   0.020   0.003   0.000   0.000   0.000   0.000   0.000   0.000   0.000   0.000      0      0      0       0       0   1.855   32.200
 2025 003    74    72  11.610     1  0.095     81      0      0     29    108    108      0      0    0.0  0.000     27   0.00   0.00   1.00   0.00   0.00   0.00   0.00   1.00   6.03  380.0   0.00      0     27    295.5   0.00   0.00 0.3993   0.019   0.003   0.000   0.000   0.000   0.000   0.000   0.000   0.000   0.000      0      0      0       0       0   0.040   32.205
 2025 004    75    73  11.612     1  0.095     81      0      0     29    108    108      0      0    0.0  0.000     27   0.00   0.00   1.00   0.00   0.00   0.00   0.00   1.00   6.03  380.0   0.00      0     27    295.5   0.00   0.00 0.3995   0.019   0.003   0.000   0.000   0.000   0.000   0.000   0.000   0.000   0.000      0      0      0       0       0   0.206   32.231
 2025 005    76    74  11.624     1  0.095     81      0      0     28    109    109      0      0    0.0  0.000     27   0.00   0.00   1.00   0.00   0.00   0.00   0.00   1.00   6.03  380.0   0.00      0     27    295.5   0.00   0.00 0.4015   0.019   0.003   0.000   0.000   0.000   0.000   0.000   0.000   0.000   0.000      0      0      0       0       0   1.911   32.480
 2025 006    77    75  11.650     1  0.098     82      0      0     29    110    110      0      0    0.0  0.000     28   0.00   0.00   1.00   0.00   0.00   0.00   0.00   1.00   5.97  380.0   0.00      0     28    295.4   0.00   0.00 0.4056   0.019   0.003   0.000   0.000   0.000   0.000   0.000   0.000   0.000   0.000      0      0      0       0       0   3.950   33.006
 2025 007    78    76  11.669     1  0.100     83      0      0     29    112    112      0      0    0.0  0.000     29   0.00   0.00   1.00   0.00   0.00   0.00   0.00   1.00   5.92  380.0   0.00      0     29    295.4   0.00   0.00 0.4085   0.019   0.003   0.000   0.000   0.000   0.000   0.000   0.000   0.000   0.000      0      0      0       0       0   2.798   33.388
 2025 008    79    77  11.686     1  0.101     83      0      0     29    113    113      0      0    0.0  0.000     29   0.00   0.00   1.00   0.00   0.00   0.00   0.00   1.00   5.89  380.0   0.00      0     29    295.3   0.00   0.00 0.4110   0.019   0.003   0.000   0.000   0.000   0.000   0.000   0.000   0.000   0.000      0      0      0       0       0   2.407   33.724
 2025 009    80    78  11.721     1  0.104     84      0      0     30    115    115      0      0    0.0  0.000     30   0.00   0.00   1.00   0.00   0.00   0.00   0.00   1.00   5.82  380.0   0.00      0     30    295.3   0.00   0.00 0.4160   0.018   0.003   0.000   0.000   0.000   0.000   0.000   0.000   0.000   0.000      0      0      0       0       0   4.867   34.422
 2025 010    81    79  11.723     1  0.104     84      0      0     30    115    115      0      0    0.0  0.000     30   0.00   0.00   1.00   0.00   0.00   0.00   0.00   1.00   5.82  380.0   0.00      0     30    295.3   0.00   0.00 0.4163   0.018   0.003   0.000   0.000   0.000   0.000   0.000   0.000   0.000   0.000      0      0      0       0       0   0.281   34.464
 2025 011    82    80  11.724     1  0.104     84      0      0     29    115    115      0      0    0.0  0.000     30   0.00   0.00   1.00   0.00   0.00   0.00   0.00   1.00   5.83  380.0   0.00      0     30    295.2   0.00   0.00 0.4164   0.018   0.003   0.000   0.000   0.000   0.000   0.000   0.000   0.000   0.000      0      0      0       0       0   0.080   34.476
 2025 012    83    81  11.724     1  0.104     84      0      0     29    115    115      0      0    0.0  0.000     30   0.00   0.00   1.00   0.00   0.00   0.00   0.00   1.00   5.83  380.0   0.00      0     30    295.2   0.00   0.00 0.4165   0.018   0.003   0.000   0.000   0.000   0.000   0.000   0.000   0.000   0.000      0      0      0       0       0   0.076   34.488
 2025 013    84    82  11.725     1  0.104     84      0      0     29    115    115      0      0    0.0  0.000     30   0.00   0.00   1.00   0.00   0.00   0.00   0.00   1.00   5.83  380.0   0.00      0     30    295.2   0.00   0.00 0.4166   0.018   0.003   0.000   0.000   0.000   0.000   0.000   0.000   0.000   0.000      0      0      0       0       0   0.130   34.509
 2025 014    85    83  11.726     1  0.104     84      0      0     28    115    115      0      0    0.0  0.000     30   0.00   0.00   1.00   0.00   0.00   0.00   0.00   1.00   5.84  380.0   0.00      0     30    295.2   0.00   0.00 0.4166   0.018   0.003   0.000   0.000   0.000   0.000   0.000   0.000   0.000   0.000      0      0      0       0       0   0.011   34.510
 2025 015    86    84  11.730     1  0.104     84      0      0     28    115    115      0      0    0.0  0.000     30   0.00   0.00   1.00   0.00   0.00   0.00   0.00   1.00   5.84  380.0   0.00      0     30    295.2   0.00   0.00 0.4172   0.017   0.003   0.000   0.000   0.000   0.000   0.000   0.000   0.000   0.000      0      0      0       0       0   0.544   34.602
 2025 016    87    85  11.746     1  0.105     85      0      0     28    115    115      0      0    0.0  0.000     30   0.00   0.00   1.00   0.00   0.00   0.00   0.00   1.00   5.82  380.0   0.00      0     30    295.2   0.00   0.00 0.4191   0.017   0.003   0.000   0.000   0.000   0.000   0.000   0.000   0.000   0.000      0      0      0       0       0   1.795   34.913
 2025 017    88    86  11.752     1  0.105     85      0      0     28    115    115      0      0    0.0  0.000     30   0.00   0.00   1.00   0.00   0.00   0.00   0.00   1.00   5.82  380.0   0.00      0     30    295.2   0.00   0.00 0.4198   0.017   0.003   0.000   0.000   0.000   0.000   0.000   0.000   0.000   0.000      0      0      0       0       0   0.729   35.043
 2025 018    89    87  11.752     1  0.105     85      0      0     28    115    115      0      0    0.0  0.000     30   0.00   0.00   1.00   0.00   0.00   0.00   0.00   1.00   5.83  380.0   0.00      0     30    295.2   0.00   0.00 0.4198   0.017   0.003   0.000   0.000   0.000   0.000   0.000   0.000   0.000   0.000      0      0      0       0       0   0.000   35.043
 2025 019    90    88  11.762     1  0.105     85      0      0     28    115    115      0      0    0.0  0.000     30   0.00   0.00   1.00   0.00   0.00   0.00   0.00   1.00   5.83  380.0   0.00      0     30    295.2   0.00   0.00 0.4209   0.017   0.003   0.000   0.000   0.000   0.000   0.000   0.000   0.000   0.000      0      0      0       0       0   1.053   35.242
 2025 020    91    89  11.780     1  0.106     85      0      0     28    116    116      0      0    0.0  0.000     31   0.00   0.00   1.00   0.00   0.00   0.00   0.00   1.00   5.81  380.0   0.00      0     31    295.1   0.00   0.00 0.4229   0.017   0.002   0.000   0.000   0.000   0.000   0.000   0.000   0.000   0.000      0      0      0       0       0   1.895   35.609
 2025 021    92    90  11.792     1  0.106     85      0      0     28    116    116      0      0    0.0  0.000     31   0.00   0.00   1.00   0.00   0.00   0.00   0.00   1.00   5.81  380.0   0.00      0     31    295.1   0.00   0.00 0.4241   0.016   0.002   0.000   0.000   0.000   0.000   0.000   0.000   0.000   0.000      0      0      0       0       0   1.161   35.840
 2025 022    93    91  11.801     1  0.106     85      0      0     27    116    116      0      0    0.0  0.000     31   0.00   0.00   1.00   0.00   0.00   0.00   0.00   1.00   5.82  380.0   0.00      0     31    295.1   0.00   0.00 0.4250   0.016   0.002   0.000   0.000   0.000   0.000   0.000   0.000   0.000   0.000      0      0      0       0       0   0.885   36.022
 2025 023    94    92  11.824     1  0.108     86      0      0     28    117    117      0      0    0.0  0.000     31   0.00   0.00   1.00   0.00   0.00   0.00   0.00   1.00   5.77  380.0   0.00      0     31    295.0   0.00   0.00 0.4273   0.016   0.002   0.000   0.000   0.000   0.000   0.000   0.000   0.000   0.000      0      0      0       0       0   2.216   36.488
 2025 024    95    93  11.867     1  0.112     87      0      0     29    120    120      0      0    0.0  0.000     33   0.00   0.00   1.00   0.00   0.00   0.00   0.00   1.00   5.68  380.0   0.00      0     33    294.9   0.00   0.00 0.4314   0.016   0.002   0.000   0.000   0.000   0.000   0.000   0.000   0.000   0.000      0      0      0       0       0   3.917   37.336
 2025 025    96    94  11.927     1  0.118     89      0      0     30    124    124      0      0    0.0  0.000     35   0.00   0.00   1.00   0.00   0.00   0.00   0.00   1.00   5.55  380.0   0.00      0     35    294.7   0.00   0.00 0.4370   0.016   0.002   0.000   0.000   0.000   0.000   0.000   0.000   0.000   0.000      0      0      0       0       0   5.400   38.538
 2025 026    97    95  11.965     1  0.122     90      0      0     31    127    127      0      0    0.0  0.000     36   0.00   0.00   1.00   0.00   0.00   0.00   0.00   1.00   5.47  380.0   0.00      0     36    294.6   0.00   0.00 0.4405   0.016   0.002   0.000   0.000   0.000   0.000   0.000   0.000   0.000   0.000      0      0      0       0       0   3.350   39.303
 2025 027    98    96  12.030     1  0.127     92      0      0     32    130    130      0      0    0.0  0.000     38   0.00   0.00   1.00   0.25   0.00   0.00   0.00   1.00   5.39  380.0   0.00      0     38    294.5   0.00   0.00 0.4462   0.016   0.003   0.000   0.000   0.000   0.000   0.000   0.000   0.000   0.000      0      0      0       0       0   5.500   40.594
 2025 028    99    97  12.067     1  0.128     92      0      0     32    131    131      0      0    0.0  0.000     38   0.00   0.00   1.00   0.28   0.00   0.00   0.00   1.00   5.36  380.0   0.00      0     38    294.4   0.00   0.00 0.4494   0.015   0.003   0.000   0.000   0.000   0.000   0.000   0.000   0.000   0.000      0      0      0       0       0   3.100   41.341
 2025 029   100    98  12.121     1  0.134     95      0      0     34    135    135      0      0    0.0  0.000     40   0.00   0.00   1.00   0.29   0.00   0.00   0.00   1.00   5.25  380.0   0.00      0     40    294.3   0.00   0.00 0.4539   0.015   0.003   0.000   0.000   0.000   0.000   0.000   0.000   0.000   0.000      0      0      0       0       0   4.347   42.417
 2025 030   101    99  12.168     1  0.140     97      0      0     35    139    139      0      0    0.0  0.000     42   0.00   0.00   1.00   0.33   0.00   0.00   0.00   1.00   5.14  380.0   0.00      0     42    294.2   0.00   0.00 0.4567   0.015   0.003   0.001   0.000   0.000   0.000   0.000   0.000   0.000   0.000      0      0      0       0       0   3.688   43.353
 2025 031   102   100  12.194     1  0.142     97      0      0     36    140    140      0      0    0.0  0.000     43   0.00   0.00   1.00   0.37   0.00   0.00   0.00   1.00   5.12  380.0   0.00      0     43    294.1   0.00   0.00 0.4583   0.015   0.003   0.001   0.000   0.000   0.000   0.000   0.000   0.000   0.000      0      0      0       0       0   2.017   43.878
 2025 032   103   101  12.212     1  0.142     97      0      0     35    140    140      0      0    0.0  0.000     43   0.00   0.00   1.00   0.38   0.00   0.00   0.00   1.00   5.12  380.0   0.00      0     43    294.0   0.00   0.00 0.4593   0.015   0.003   0.001   0.000   0.000   0.000   0.000   0.000   0.000   0.000      0      0      0       0       0   1.347   44.238
 2025 033   104   102  12.234     1  0.142     97      0      0     35    140    140      0      0    0.0  0.000     43   0.00   0.00   1.00   0.38   0.00   0.00   0.00   1.00   5.12  380.0   0.00      0     43    294.0   0.00   0.00 0.4606   0.015   0.003   0.001   0.000   0.000   0.000   0.000   0.000   0.000   0.000      0      0      0       0       0   1.647   44.689
 2025 034   105   103  12.244     1  0.142     97      0      0     35    140    140      0      0    0.0  0.000     43   0.00   0.00   1.00   0.38   0.00   0.00   0.00   1.00   5.12  380.0   0.00      0     43    294.0   0.00   0.00 0.4611   0.015   0.003   0.001   0.000   0.000   0.000   0.000   0.000   0.000   0.000      0      0      0       0       0   0.664   44.875
 2025 035   106   104  12.252     1  0.142     97      0      0     35    140    140      0      0    0.0  0.000     43   0.00   0.00   1.00   0.38   0.00   0.00   0.00   1.00   5.12  380.0   0.00      0     43    293.9   0.00   0.00 0.4616   0.015   0.003   0.001   0.000   0.000   0.000   0.000   0.000   0.000   0.000      0      0      0       0       0   0.600   45.048
 2025 036   107   105  12.274     1  0.142     97      0      0     34    140    140      0      0    0.0  0.000     43   0.00   0.00   1.00   0.37   0.00   0.00   0.00   1.00   5.13  380.0   0.00      0     43    293.9   0.00   0.00 0.4627   0.014   0.002   0.001   0.000   0.000   0.000   0.000   0.000   0.000   0.000      0      0      0       0       0   1.489   45.486
 2025 037   108   106  12.298     1  0.143     97      0      0     34    141    141      0      0    0.0  0.000     43   0.00   0.00   1.00   0.37   0.00   0.00   0.00   1.00   5.12  380.0   0.00      0     43    293.8   0.00   0.00 0.4639   0.014   0.002   0.001   0.000   0.000   0.000   0.000   0.000   0.000   0.000      0      0      0       0       0   1.578   45.962
 2025 038   109   107  12.322     1  0.143     98      0      0     34    141    141      0      0    0.0  0.000     43   0.00   0.00   1.00   0.37   0.00   0.00   0.00   1.00   5.11  380.0   0.00      0     43    293.8   0.00   0.00 0.4651   0.014   0.002   0.001   0.000   0.000   0.000   0.000   0.000   0.000   0.000      0      0      0       0       0   1.566   46.445
 2025 039   110   108  12.361     1  0.147     99      0      0     36    143    143      0      0    0.0  0.000     44   0.00   0.00   1.00   0.38   0.00   0.00   0.00   1.00   5.06  380.0   0.00      0     44    293.7   0.00   0.00 0.4670   0.014   0.002   0.001   0.000   0.000   0.000   0.000   0.000   0.000   0.000      0      0      0       0       0   2.479   47.228
 2025 040   111   109  12.390     1  0.148     99      0      0     37    144    144      0      0    0.0  0.000     45   0.00   0.00   1.00   0.39   0.00   0.00   0.00   1.00   5.04  380.0   0.00      0     45    293.6   0.00   0.00 0.4684   0.014   0.002   0.001   0.000   0.000   0.000   0.000   0.000   0.000   0.000      0      0      0       0       0   1.776   47.801
 2025 041   112   110  12.435     1  0.152    101      0      0     38    147    147      0      0    0.0  0.000     46   0.00   0.00   1.00   0.40   0.00   0.00   0.00   1.00   4.97  380.0   0.00      0     46    293.5   0.00   0.00 0.4705   0.014   0.002   0.001   0.000   0.000   0.000   0.000   0.000   0.000   0.000      0      0      0       0       0   2.707   48.694
 2025 042   113   111  12.464     1  0.153    101      0      0     39    148    148      0      0    0.0  0.000     47   0.00   0.00   1.00   0.42   0.00   0.00   0.00   1.00   4.95  380.0   0.00      0     47    293.4   0.00   0.00 0.4718   0.014   0.003   0.001   0.000   0.000   0.000   0.000   0.000   0.000   0.000      0      0      0       0       0   1.708   49.271
 2025 043   114   112  12.532     1  0.158    103      0      0     40    151    151      0      0    0.0  0.000     48   0.00   0.00   1.00   0.43   0.00   0.00   0.00   1.00   4.88  380.0   0.00      0     48    293.3   0.00   0.00 0.4749   0.014   0.003   0.001   0.000   0.000   0.000   0.000   0.000   0.000   0.000      0      0      0       0       0   3.950   50.632
 2025 044   115   113  12.555     1  0.158    103      0      0     39    151    151      0      0    0.0  0.000     48   0.00   0.00   1.00   0.45   0.00   0.00   0.00   1.00   4.88  380.0   0.00      0     48    293.2   0.00   0.00 0.4759   0.014   0.003   0.001   0.000   0.000   0.000   0.000   0.000   0.000   0.000      0      0      0       0       0   1.344   51.105
 2025 045   116   114  12.556     1  0.158    103      0      0     39    151    151      0      0    0.0  0.000     48   0.00   0.00   1.00   0.45   0.00   0.00   0.00   1.00   4.88  380.0   0.00      0     48    293.2   0.00   0.00 0.4759   0.013   0.003   0.001   0.000   0.000   0.000   0.000   0.000   0.000   0.000      0      0      0       0       0   0.063   51.128
 2025 046   117   115  12.558     1  0.158    103      0      0     39    151    151      0      0    0.0  0.000     48   0.00   0.00   1.00   0.45   0.00   0.00   0.00   1.00   4.89  380.0   0.00      0     48    293.2   0.00   0.00 0.4760   0.013   0.003   0.001   0.000   0.000   0.000   0.000   0.000   0.000   0.000      0      0      0       0       0   0.107   51.167
 2025 047   118   116  12.558     1  0.158    103      0      0     38    151    151      0      0    0.0  0.000     48   0.00   0.00   1.00   0.45   0.00   0.00   0.00   1.00   4.89  380.0   0.00      0     48    293.2   0.00   0.00 0.4760   0.013   0.002   0.001   0.000   0.000   0.000   0.000   0.000   0.000   0.000      0      0      0       0       0   0.008   51.170
 2025 048   119   117  12.559     1  0.158    103      0      0     38    151    151      0      0    0.0  0.000     48   0.00   0.00   1.00   0.45   0.00   0.00   0.00   1.00   4.89  380.0   0.00      0     48    293.2   0.00   0.00 0.4760   0.013   0.002   0.001   0.000   0.000   0.000   0.000   0.000   0.000   0.000      0      0      0       0       0   0.009   51.173
 2025 049   120   118  12.559     1  0.158    103      0      0     38    151    151      0      0    0.0  0.000     48   0.00   0.00   1.00   0.45   0.00   0.00   0.00   1.00   4.89  380.0   0.00      0     48    293.2   0.00   0.00 0.4761   0.013   0.002   0.001   0.000   0.000   0.000   0.000   0.000   0.000   0.000      0      0      0       0       0   0.027   51.184
 2025 050   121   119  12.564     1  0.158    103      0      0     37    151    151      0      0    0.0  0.000     48   0.00   0.00   1.00   0.44   0.00   0.00   0.00   1.00   4.89  380.0   0.00      0     48    293.2   0.00   0.00 0.4762   0.013   0.002   0.001   0.000   0.000   0.000   0.000   0.000   0.000   0.000      0      0      0       0       0   0.248   51.283
 2025 051   122   120  12.617     1  0.158    103      0      0     37    151    151      0      0    0.0  0.000     48   0.00   0.00   1.00   0.44   0.00   0.00   0.00   1.00   4.89  380.0   0.00      0     48    293.1   0.00   0.00 0.4783   0.013   0.002   0.001   0.000   0.000   0.000   0.000   0.000   0.000   0.000      0      0      0       0       0   2.605   52.336
 2025 052   123   121  12.730     1  0.172    107      0      0     41    161    161      0      0    0.0  0.000     53   0.00   0.00   1.00   0.44   0.00   0.00   0.00   1.00   4.68  380.0   0.00      0     53    292.8   0.00   0.00 0.4825   0.013   0.002   0.001   0.000   0.000   0.000   0.000   0.000   0.000   0.000      0      0      0       0       0   5.500   54.601
 2025 053   124   122  12.840     1  0.183    111      0      0     43    168    168      0      0    0.0  0.000     57   0.00   0.00   1.00   0.51   0.00   0.00   0.00   1.00   4.52  380.0   0.00      0     57    292.6   0.00   0.00 0.4865   0.013   0.002   0.001   0.000   0.000   0.000   0.000   0.000   0.000   0.000      0      0      0       0       0   5.249   56.802
 2025 054   125   123  12.985     1  0.195    115      0      0     46    176    176      0      0    0.0  0.000     61   0.00   0.00   1.00   0.56   0.00   0.00   0.00   1.00   4.37  380.0   0.00      0     61    292.3   0.00   0.00 0.4918   0.013   0.003   0.001   0.000   0.000   0.000   0.000   0.000   0.000   0.000      0      0      0       0       0   6.800   59.704
 2025 055   126   124  13.109     1  0.205    119      0      0     49    184    184      0      0    0.0  0.000     64   0.00   0.00   1.00   0.61   0.00   0.00   0.00   1.00   4.24  380.0   0.00      0     64    292.0   0.00   0.00 0.4962   0.012   0.003   0.001   0.000   0.000   0.000   0.000   0.000   0.000   0.000      0      0      0       0       0   5.700   62.181
 2025 056   127   125  13.276     1  0.215    122      0      0     51    190    190      0      0    0.0  0.000     68   0.00   0.00   1.00   0.65   0.00   0.00   0.00   1.00   4.13  380.0   0.00      0     68    291.6   0.00   0.00 0.5020   0.012   0.003   0.001   0.001   0.000   0.000   0.000   0.000   0.000   0.000      0      0      0       0       0   7.550   65.518
 2025 057   128   126  13.347     1  0.219    123      0      0     52    193    193      0      0    0.0  0.000     69   0.00   0.00   1.00   0.68   0.00   0.00   0.00   1.00   4.09  380.0   0.00      0     69    291.5   0.00   0.00 0.5044   0.012   0.003   0.001   0.001   0.000   0.000   0.000   0.000   0.000   0.000      0      0      0       0       0   3.159   66.938
 2025 058   129   127  13.417     1  0.224    125      0      0     53    196    196      0      0    0.0  0.000     71   0.00   0.00   1.00   0.69   0.00   0.00   0.00   1.00   4.04  380.0   0.00      0     71    291.3   0.00   0.00 0.5068   0.012   0.003   0.001   0.001   0.000   0.000   0.000   0.000   0.000   0.000      0      0      0       0       0   3.084   68.348
 2025 059   130   128  13.477     1  0.228    126      0      0     54    199    199      0      0    0.0  0.000     72   0.00   0.00   1.00   0.71   0.00   0.00   0.00   1.00   4.00  380.0   0.00      0     72    291.2   0.00   0.00 0.5088   0.012   0.003   0.001   0.001   0.000   0.000   0.000   0.000   0.000   0.000      0      0      0       0       0   2.566   69.540
 2025 060   131   129  13.541     1  0.232    128      0      0     55    202    202      0      0    0.0  0.000     74   0.00   0.00   1.00   0.72   0.00   0.00   0.00   1.00   3.95  380.0   0.00      0     74    291.1   0.00   0.00 0.5109   0.012   0.003   0.001   0.001   0.000   0.000   0.000   0.000   0.000   0.000      0      0      0       0       0   2.728   70.828
 2025 061   132   130  13.623     1  0.241    131      0      0     57    208    208      0      0    0.0  0.000     77   0.00   0.00   1.00   0.73   0.00   0.00   0.00   1.00   3.87  380.0   0.00      0     77    290.9   0.00   0.00 0.5135   0.012   0.003   0.001   0.001   0.000   0.000   0.000   0.000   0.000   0.000      0      0      0       0       0   3.404   72.461
 2025 062   133   131  13.720     1  0.241    131      0      0     57    208    208      0      0    0.0  0.000     77   0.00   0.00   1.00   0.75   0.00   0.00   0.00   1.00   3.87  380.0   0.00      0     77    290.7   0.00   0.00 0.5166   0.012   0.003   0.001   0.001   0.000   0.000   0.000   0.000   0.000   0.000      0      0      0       0       0   4.000   74.410
 2025 063   134   132  13.854     1  0.252    135      0      0     60    215    215      0      0    0.0  0.000     80   0.00   0.00   1.00   0.75   0.00   0.00   0.00   1.00   3.77  380.0   0.00      0     80    290.4   0.00   0.00 0.5207   0.012   0.003   0.001   0.001   0.000   0.000   0.000   0.000   0.000   0.000      0      0      0       0       0   5.395   77.079
 2025 064   135   133  14.036     1  0.263    139      0      0     62    223    223      0      0    0.0  0.000     84   0.00   0.00   1.00   0.78   0.00   0.00   0.00   1.00   3.67  380.0   0.00      0     84    290.0   0.00   0.00 0.5263   0.012   0.003   0.001   0.001   0.000   0.000   0.000   0.000   0.000   0.000      0      0      0       0       0   7.238   80.713
 2025 065   136   134  14.251     1  0.275    143      0      0     65    232    232      0      0    0.0  0.000     89   0.00   0.00   1.00   0.81   0.00   0.00   0.00   1.00   3.57  380.0   0.00      0     89    289.6   0.00   0.00 0.5328   0.012   0.003   0.001   0.001   0.000   0.000   0.000   0.000   0.000   0.000      0      0      0       0       0   8.470   85.030
 2025 066   137   135  14.473     1  0.286    147      0      0     68    239    239      0      0    0.0  0.000     92   0.00   0.00   1.00   0.84   0.00   0.00   0.00   1.00   3.48  380.0   0.00      0     92    289.2   0.00   0.00 0.5394   0.012   0.003   0.001   0.001   0.000   0.000   0.000   0.000   0.000   0.000      0      0      0       0       0   8.550   89.451
 2025 067   138   136  14.701     1  0.296    150      0      0     70    246    246      0      0    0.0  0.000     96   0.00   0.00   1.00   0.86   0.00   0.00   0.00   1.00   3.41  380.0   0.00      0     96    288.7   0.00   0.00 0.5461   0.012   0.003   0.001   0.001   0.000   0.000   0.000   0.000   0.000   0.000      0      0      0       0       0   8.700   94.014
 2025 068   139   137  14.943     1  0.305    153      0      0     72    252    252      0      0    0.0  0.000     99   0.00   0.00   1.00   0.88   0.00   0.00   0.00   1.00   3.35  380.0   0.00      0     99    288.3   0.00   0.00 0.5531   0.012   0.003   0.001   0.001   0.000   0.000   0.000   0.000   0.000   0.000      0      0      0       0       0   9.100   98.855
 2025 069   140   138  15.175     1  0.311    155      0      0     73    256    256      0      0    0.0  0.000    101   0.00   0.00   1.00   0.89   0.00   0.00   0.00   1.00   3.31  380.0   0.00      0    101    287.9   0.00   0.00 0.5597   0.012   0.003   0.001   0.001   0.000   0.000   0.000   0.000   0.000   0.000      0      0      0       0       0   8.600  103.492
 2025 070   141   139  15.371     1  0.316    157      0      0     74    260    260      0      0    0.0  0.000    103   0.00   0.00   1.00   0.90   0.00   0.00   0.00   1.00   3.28  380.0   0.00      0    103    287.5   0.00   0.00 0.5653   0.012   0.003   0.001   0.001   0.000   0.000   0.000   0.000   0.000   0.000      0      0      0       0       0   7.200  107.428
 2025 071   142   140  15.499     1  0.319    158      0      0     74    262    262      0      0    0.0  0.000    103   0.00   0.00   1.00   0.91   0.00   0.00   0.00   1.00   3.28  380.0   0.00      0    103    287.3   0.00   0.00 0.5688   0.012   0.003   0.001   0.001   0.000   0.000   0.000   0.000   0.000   0.000      0      0      0       0       0   4.600  109.976
 2025 072   143   141  15.589     1  0.321    159      0      0     74    263    263      0      0    0.0  0.000    104   0.00   0.00   1.00   0.91   0.00   0.00   0.00   1.00   3.29  380.0   0.00      0    104    287.2   0.00   0.00 0.5713   0.012   0.003   0.001   0.001   0.000   0.000   0.000   0.000   0.000   0.000      0      0      0       0       0   3.200  111.772
 2025 073   144   142  15.707     1  0.324    160      0      0     74    265    265      0      0    0.0  0.000    105   0.00   0.00   1.00   0.90   0.00   0.00   0.00   1.00   3.28  380.0   0.00      0    105    287.0   0.00   0.00 0.5745   0.011   0.003   0.001   0.001   0.000   0.000   0.000   0.000   0.000   0.000      0      0      0       0       0   4.150  114.131
 2025 074   145   143  15.845     1  0.328    161      0      0     75    268    268      0      0    0.0  0.000    107   0.00   0.00   1.00   0.90   0.00   0.00   0.00   1.00   3.28  380.0   0.00      0    107    286.7   0.00   0.00 0.5782   0.011   0.003   0.001   0.001   0.000   0.000   0.000   0.000   0.000   0.000      0      0      0       0       0   4.810  116.899
 2025 075   146   144  15.984     1  0.333    163      0      0     76    272    272      0      0    0.0  0.000    108   0.00   0.00   1.00   0.90   0.00   0.00   0.00   1.00   3.26  380.0   0.00      0    108    286.5   0.00   0.00 0.5818   0.011   0.003   0.001   0.001   0.000   0.000   0.000   0.000   0.000   0.000      0      0      0       0       0   4.766  119.677
 2025 076   147   145  16.054     1  0.333    163      0      0     76    272    272      0      0    0.0  0.000    109   0.00   0.00   1.00   0.90   0.00   0.00   0.00   1.00   3.27  380.0   0.00      0    109    286.4   0.00   0.00 0.5837   0.011   0.003   0.001   0.001   0.000   0.000   0.000   0.000   0.000   0.000      0      0      0       0       0   2.390  121.087
 2025 077   148   146  16.130     1  0.334    163      0      0     75    272    272      0      0    0.0  0.000    109   0.00   0.00   1.00   0.90   0.00   0.00   0.00   1.00   3.28  380.0   0.00      0    109    286.3   0.00   0.00 0.5856   0.011   0.003   0.001   0.001   0.000   0.000   0.000   0.000   0.000   0.000      0      0      0       0       0   2.550  122.609
 2025 078   149   147  16.292     1  0.334    163      0      0     74    272    272      0      0    0.0  0.000    109   0.00   0.00   1.00   0.89   0.00   0.00   0.00   1.00   3.29  380.0   0.00      0    109    286.0   0.00   0.00 0.5898   0.011   0.003   0.001   0.001   0.000   0.000   0.000   0.000   0.000   0.000      0      0      0       0       0   5.360  125.847
 2025 079   150   148  16.576     1  0.344    167      0      0     77    279    279      0      0    0.0  0.000    112   0.00   0.00   1.00   0.88   0.00   0.00   0.00   1.00   3.23  380.0   0.00      0    112    285.5   0.00   0.00 0.5969   0.011   0.003   0.001   0.001   0.000   0.000   0.000   0.000   0.000   0.000      0      0      0       0       0   9.270  131.511
 2025 080   151   149  16.889     1  0.353    170      0      0     79    286    286      0      0    0.0  0.000    116   0.00   0.00   1.00   0.90   0.00   0.00   0.00   1.00   3.18  380.0   0.00      0    116    285.1   0.00   0.00 0.6047   0.011   0.003   0.001   0.001   0.000   0.000   0.000   0.000   0.000   0.000      0      0      0       0       0  10.150  137.784
 2025 081   152   150  17.200     1  0.360    172      0      0     80    291    291      0      0    0.0  0.000    118   0.00   0.00   1.00   0.91   0.00   0.00   0.00   1.00   3.15  380.0   0.00      0    118    284.6   0.00   0.00 0.6096   0.011   0.003   0.001   0.001   0.000   0.000   0.000   0.000   0.000   0.000      0      0      0       0       0   9.950  144.002
 2025 082   153   151  17.467     1  0.366    175      0      0     81    295    295      0      0    0.0  0.000    120   0.00   0.00   1.00   0.92   0.00   0.00   0.00   1.00   3.12  380.0   0.00      0    120    284.2   0.00   0.00 0.6137   0.011   0.003   0.001   0.001   0.000   0.000   0.000   0.000   0.000   0.000      0      0      0       0       0   8.450  149.341
 2025 083   154   152  17.767     1  0.371    176      0      0     81    298    298      0      0    0.0  0.000    122   0.00   0.00   1.00   0.92   0.00   0.00   0.00   1.00   3.10  380.0   0.00      0    122    283.8   0.00   0.00 0.6184   0.011   0.003   0.001   0.001   0.000   0.000   0.000   0.000   0.000   0.000      0      0      0       0       0   9.400  155.345
 2025 084   155   153  18.087     1  0.377    178      0      0     82    302    302      0      0    0.0  0.000    124   0.00   0.00   1.00   0.92   0.00   0.00   0.00   1.00   3.08  380.0   0.00      0    124    283.4   0.00   0.00 0.6232   0.011   0.003   0.001   0.001   0.000   0.000   0.000   0.000   0.000   0.000      0      0      0       0       0   9.900  161.734
 2025 085   156   154  18.302     1  0.380    179      0      0     82    305    305      0      0    0.0  0.000    125   0.00   0.00   1.00   0.93   0.00   0.00   0.00   1.00   3.08  380.0   0.00      0    125    283.1   0.00   0.00 0.6265   0.011   0.003   0.001   0.001   0.000   0.000   0.000   0.000   0.000   0.000      0      0      0       0       0   6.600  166.038
 2025 086   157   155  18.534     1  0.386    181      0      0     83    309    309      0      0    0.0  0.000    127   0.00   0.00   1.00   0.92   0.00   0.00   0.00   1.00   3.07  380.0   0.00      0    127    282.8   0.00   0.00 0.6299   0.011   0.003   0.001   0.001   0.000   0.000   0.000   0.000   0.000   0.000      0      0      0       0       0   7.050  170.683
 2025 087   158   156  18.798     1  0.390    184      0      0     85    314    314      0      0    0.0  0.000    129   0.00   0.00   1.00   0.92   0.00   0.00   0.00   1.00   3.05  380.0   0.00      0    129    282.4   0.00   0.00 0.6338   0.011   0.003   0.002   0.001   0.000   0.000   0.000   0.000   0.000   0.000      0      0      0       0       0   7.939  175.966
 2025 088   159   157  19.074     1  0.392    186      0      0     86    317    317      0      0    0.0  0.000    131   0.00   0.00   1.00   0.92   0.00   0.00   0.00   1.00   3.05  380.0   0.00      0    131    282.1   0.00   0.00 0.6378   0.010   0.003   0.002   0.001   0.000   0.000   0.000   0.000   0.000   0.000      0      0      0       0       0   8.200  181.476
 2025 089   160   158  19.274     1  0.394    187      0      0     87    320    320      0      0    0.0  0.000    133   0.00   0.00   1.00   0.92   0.00   0.00   0.00   1.00   3.06  380.0   0.00      0    133    281.9   0.00   0.00 0.6407   0.010   0.003   0.002   0.001   0.000   0.000   0.000   0.000   0.000   0.000      0      0      0       0       0   5.900  185.480
 2025 090   161   159  19.454     1  0.396    189      0      0     87    323    323      0      0    0.0  0.000    134   0.00   0.00   1.00   0.91   0.00   0.00   0.00   1.00   3.06  380.0   0.00      0    134    281.7   0.00   0.00 0.6433   0.010   0.003   0.002   0.001   0.000   0.000   0.000   0.000   0.000   0.000      0      0      0       0       0   5.250  189.076
 2025 091   162   160  19.640     1  0.400    191      0      0     88    327    327      0      0    0.0  0.000    136   0.00   0.00   1.00   0.91   0.00   0.00   0.00   1.00   3.06  380.0   0.00      0    136    281.4   0.00   0.00 0.6459   0.010   0.003   0.002   0.001   0.000   0.000   0.000   0.000   0.000   0.000      0      0      0       0       0   5.400  192.809
 2025 092   163   161  19.925     1  0.408    194      0      0     90    334    334      0      0    0.0  0.000    140   0.00   0.00   1.00   0.90   0.00   0.00   0.00   1.00   3.04  380.0   0.00      0    140    281.1   0.00   0.00 0.6499   0.010   0.003   0.002   0.001   0.000   0.000   0.000   0.000   0.000   0.000      0      0      0       0       0   8.150  198.496
 2025 093   164   162  20.296     1  0.418    198      0      0     93    342    342      0      0    0.0  0.000    144   0.00   0.00   1.00   0.90   0.00   0.00   0.00   1.00   3.00  380.0   0.00      0    144    280.7   0.00   0.00 0.6551   0.010   0.003   0.002   0.001   0.000   0.000   0.000   0.000   0.000   0.000      0      0      0       0       0  10.550  205.923
 2025 094   165   163  20.665     1  0.427    202      0      0     95    350    350      0      0    0.0  0.000    148   0.00   0.00   1.00   0.91   0.00   0.00   0.00   1.00   2.96  380.0   0.00      0    148    280.3   0.00   0.00 0.6602   0.010   0.004   0.002   0.001   0.001   0.000   0.000   0.000   0.000   0.000      0      0      0       0       0  10.400  213.309
 2025 095   166   164  21.036     1  0.435    205      0      0     97    357    357      0      0    0.0  0.000    151   0.00   0.00   1.00   0.92   0.00   0.00   0.00   1.00   2.94  380.0   0.00      0    151    280.0   0.00   0.00 0.6653   0.010   0.004   0.002   0.001   0.001   0.000   0.000   0.000   0.000   0.000      0      0      0       0       0  10.350  220.723
 2025 096   167   165  21.182     1  0.437    207      0      0     99    360    360      0      0    0.0  0.000    152   0.00   0.00   1.00   0.92   0.00   0.00   0.00   1.00   2.94  380.0   0.00      0    152    279.8   0.00   0.00 0.6673   0.010   0.004   0.002   0.001   0.001   0.000   0.000   0.000   0.000   0.000      0      0      0       0       0   4.034  223.638
 2025 097   168   166  21.342     1  0.437    207      0      0     98    360    360      0      0    0.0  0.000    153   0.00   0.00   1.00   0.92   0.00   0.00   0.00   1.00   2.96  380.0   0.00      0    153    279.6   0.00   0.00 0.6694   0.010   0.004   0.002   0.001   0.001   0.000   0.000   0.000   0.000   0.000      0      0      0       0       0   4.407  226.848
 2025 098   169   167  21.597     1  0.445    210      0      0    101    366    366      0      0    0.0  0.000    155   0.00   0.00   1.00   0.91   0.00   0.00   0.00   1.00   2.94  380.0   0.00      0    155    279.4   0.00   0.00 0.6728   0.010   0.004   0.002   0.001   0.001   0.000   0.000   0.000   0.000   0.000      0      0      0       0       0   6.937  231.943
 2025 099   170   168  21.836     1  0.451    212      0      0    104    371    371      0      0    0.0  0.000    158   0.00   0.00   1.00   0.91   0.00   0.00   0.00   1.00   2.92  380.0   0.00      0    158    279.2   0.00   0.00 0.6760   0.010   0.004   0.002   0.001   0.001   0.000   0.000   0.000   0.000   0.000      0      0      0       0       0   6.450  236.719
 2025 100   171   169  22.119     1  0.459    216      0      0    107    377    377      0      0    0.0  0.000    161   0.00   0.00   1.00   0.91   0.00   0.00   0.00   1.00   2.90  380.0   0.00      0    161    278.9   0.00   0.00 0.6797   0.010   0.004   0.002   0.001   0.001   0.000   0.000   0.000   0.000   0.000      0      0      0       0       0   7.600  242.390
 2025 101   172   170  22.464     1  0.468    219      0      0    110    384    384      0      0    0.0  0.000    165   0.00   0.00   1.00   0.91   0.00   0.00   0.00   1.00   2.87  380.0   0.00      0    165    278.6   0.00   0.00 0.6842   0.010   0.004   0.002   0.001   0.001   0.000   0.000   0.000   0.000   0.000      0      0      0       0       0   9.160  249.278
 2025 102   173   171  22.877     1  0.473    223      0      0    113    392    392      0      0    0.0  0.000    169   0.00   0.00   1.00   0.92   0.00   0.00   0.00   1.00   2.83  380.0   0.00      0    169    278.3   0.00   0.00 0.6896   0.010   0.004   0.002   0.001   0.001   0.000   0.000   0.000   0.000   0.000      0      0      0       0       0  10.900  257.537
 2025 103   174   172  23.335     1  0.473    226      0      0    114    397    397      0      0    0.0  0.000    171   0.00   0.00   1.00   0.93   0.00   0.00   0.00   1.00   2.82  380.0   0.00      0    171    277.9   0.00   0.00 0.6955   0.010   0.004   0.002   0.001   0.001   0.000   0.000   0.000   0.000   0.000      0      0      0       0       0  12.000  266.697
 2025 104   175   173  23.831     1  0.475    229      0      0    115    403    403      0      0    0.0  0.000    174   0.00   0.00   1.00   0.92   0.00   0.00   0.00   1.00   2.80  380.0   0.00      0    174    277.5   0.00   0.00 0.7018   0.010   0.004   0.002   0.001   0.001   0.000   0.000   0.000   0.000   0.000      0      0      0       0       0  12.900  276.616
 2025 105   176   174  24.406     1  0.479    232      0      0    117    411    411      0      0    0.0  0.000    178   0.00   0.00   1.00   0.92   0.00   0.00   0.00   1.00   2.78  380.0   0.00      0    178    277.1   0.00   0.00 0.7091   0.010   0.004   0.002   0.001   0.001   0.000   0.000   0.000   0.000   0.000      0      0      0       0       0  14.850  288.115
 2025 106   177   175  25.035     1  0.484    236      0      0    119    418    418      0      0    0.0  0.000    182   0.00   0.00   1.00   0.92   0.00   0.00   0.00   1.00   2.76  380.0   0.00      0    182    276.7   0.00   0.00 0.7170   0.010   0.004   0.002   0.001   0.001   0.000   0.000   0.000   0.000   0.000      0      0      0       0       0  16.150  300.709
 2025 107   178   176  25.457     1  0.487    239      0      0    120    424    424      0      0    0.0  0.000    185   0.00   0.00   1.00   0.92   0.00   0.00   0.00   1.00   2.76  380.0   0.00      0    185    276.4   0.00   0.00 0.7223   0.010   0.004   0.002   0.001   0.001   0.000   0.000   0.000   0.000   0.000      0      0      0       0       0  10.750  309.150
 2025 108   179   177  25.762     1  0.489    240      0      0    120    427    427      0      0    0.0  0.000    186   0.00   0.00   1.00   0.92   0.00   0.00   0.00   1.00   2.77  380.0   0.00      0    186    276.2   0.00   0.00 0.7261   0.010   0.004   0.002   0.002   0.001   0.000   0.000   0.000   0.000   0.000      0      0      0       0       0   7.700  315.236
 2025 109   180   178  26.164     1  0.501    245      0      0    123    436    436      0      0    0.0  0.000    191   0.00   0.00   1.00   0.90   0.00   0.00   0.00   1.00   2.75  380.0   0.00      0    191    276.0   0.00   0.00 0.7310   0.010   0.004   0.002   0.002   0.001   0.000   0.000   0.000   0.000   0.000      0      0      0       0       0  10.100  323.272
 2025 110   181   179  26.714     1  0.513    250      0      0    126    447    447      0      0    0.0  0.000    196   0.00   0.00   1.00   0.90   0.00   0.00   0.00   1.00   2.74  380.0   0.00      0    196    275.6   0.00   0.00 0.7378   0.010   0.004   0.002   0.002   0.001   0.000   0.000   0.000   0.000   0.000      0      0      0       0       0  13.750  334.282
 2025 111   182   180  27.147     1  0.512    255      0      0    129    456    456      0      0    0.0  0.000    201   0.00   0.00   1.00   0.90   0.00   0.00   0.00   1.00   2.73  380.0   0.00      0    201    275.4   0.00   0.00 0.7430   0.010   0.004   0.002   0.002   0.001   0.000   0.000   0.000   0.000   0.000      0      0      0       0       0  10.750  342.944
 2025 112   183   181  27.581     1  0.516    259      0      0    132    465    465      0      0    0.0  0.000    205   0.00   0.00   1.00   0.89   0.00   0.00   0.00   1.00   2.72  380.0   0.00      0    205    275.2   0.00   0.00 0.7483   0.010   0.004   0.002   0.002   0.001   0.000   0.000   0.000   0.000   0.000      0      0      0       0       0  10.700  351.620
 2025 113   184   182  28.062     1  0.525    265      0      0    135    477    477      0      0    0.0  0.000    211   0.00   0.00   1.00   0.88   0.00   0.00   0.00   1.00   2.69  380.0   0.00      0    211    274.9   0.00   0.00 0.7541   0.010   0.004   0.002   0.002   0.001   0.000   0.000   0.000   0.000   0.000      0      0      0       0       0  11.800  361.244
 2025 114   185   183  28.429     1  0.528    269      0      0    137    484    484      0      0    0.0  0.000    215   0.00   0.00   1.00   0.88   0.00   0.00   0.00   1.00   2.69  380.0   0.00      0    215    274.8   0.00   0.00 0.7585   0.010   0.004   0.002   0.002   0.001   0.000   0.000   0.000   0.000   0.000      0      0      0       0       0   8.950  368.588
 2025 115   186   184  28.778     1  0.532    272      0      0    138    490    490      0      0    0.0  0.000    218   0.00   0.00   1.00   0.88   0.00   0.00   0.00   1.00   2.69  380.0   0.00      0    218    274.6   0.00   0.00 0.7626   0.010   0.005   0.002   0.002   0.001   0.000   0.000   0.000   0.000   0.000      0      0      0       0       0   8.450  375.561
 2025 116   187   185  29.174     1  0.546    278      0      0    142    503    503      0      0    0.0  0.000    224   0.00   0.00   1.00   0.87   0.00   0.00   0.00   1.00   2.67  380.0   0.00      0    224    274.4   0.00   0.00 0.7673   0.010   0.005   0.002   0.002   0.001   0.000   0.000   0.000   0.000   0.000      0      0      0       0       0   9.550  383.486
 2025 117   188   186  29.635     1  0.564    286      0      0    149    519    519      0      0    0.0  0.000    232   0.00   0.00   1.00   0.87   0.00   0.00   0.00   1.00   2.65  380.0   0.00      0    232    274.2   0.00   0.00 0.7727   0.010   0.005   0.002   0.002   0.001   0.000   0.000   0.000   0.000   0.000      0      0      0       0       0  11.050  392.706
 2025 118   189   187  30.137     2  0.579    293      3      0    153    535    535      0      0    0.0  0.000    239   0.00   0.00   1.00   0.86   0.00   0.00   0.00   1.00   2.63  768.0   0.00      0    239    274.2   0.00   0.00 0.7790   0.010   0.005   0.003   0.002   0.001   0.000   0.000   0.000   0.000   0.000      0      0      0       0       0  12.850    3.487
 2025 119   190   188  30.711     2  0.596    301      6      0    159    553    553      0      0    0.0  0.000    246   0.00   0.00   1.00   0.86   0.00   0.00   0.00   1.00   2.61  808.0   0.00      0    246    274.2   0.00   0.00 0.7862   0.010   0.005   0.003   0.002   0.001   0.000   0.000   0.000   0.000   0.000      0      0      0       0       0  14.550   18.037
 2025 120   191   189  31.301     2  0.613    308     10      0    165    571    571      0      0    0.0  0.000    254   0.00   0.00   1.00   0.86   0.00   0.00   0.00   1.00   2.58  819.7   0.00      0    254    274.2   0.00   0.00 0.7935   0.010   0.005   0.003   0.002   0.001   0.000   0.000   0.000   0.000   0.000      0      0      0       0       0  15.000   33.037
 2025 121   192   190  32.054     2  0.597    314     13      0    169    587    587      0      0    0.0  0.000    260   0.00   0.00   1.00   0.85   0.00   0.00   0.00   1.00   2.56  813.5   0.00      0    260    274.2   0.00   0.00 0.8029   0.010   0.005   0.003   0.002   0.001   0.000   0.000   0.000   0.000   0.000      0      0      0       0       0  19.100   52.137
 2025 122   193   191  32.745     2  0.586    322     18      0    176    608    608      0      0    0.0  0.000    268   0.00   0.00   1.00   0.84   0.00   0.00   0.00   1.00   2.53  802.7   0.00      0    268    274.2   0.00   0.00 0.8115   0.010   0.005   0.003   0.002   0.001   0.000   0.000   0.000   0.000   0.000      0      0      0       0       0  17.550   69.687
 2025 123   194   192  33.378     2  0.575    326     21      0    179    619    619      0      0    0.0  0.000    272   0.00   0.00   1.00   0.85   0.00   0.00   0.00   1.00   2.53  788.9   0.00      0    272    274.2   0.00   0.00 0.8194   0.010   0.005   0.003   0.002   0.001   0.000   0.000   0.000   0.000   0.000      0      0      0       0       0  16.050   85.737
 2025 124   195   193  33.815     2  0.573    331     25      0    183    633    633      0      0    0.0  0.000    277   0.00   0.00   1.00   0.83   0.00   0.00   0.00   1.00   2.53  778.7   0.00      0    277    274.2   0.00   0.00 0.8248   0.010   0.005   0.003   0.002   0.001   0.000   0.000   0.000   0.000   0.000      0      0      0       0       0  11.100   96.837
 2025 125   196   194  34.159     2  0.576    335     29      0    186    645    645      0      0    0.0  0.000    281   0.00   0.00   1.00   0.83   0.00   0.00   0.00   1.00   2.54  770.4   0.00      0    281    274.2   0.00   0.00 0.8291   0.010   0.006   0.003   0.002   0.001   0.000   0.000   0.000   0.000   0.000      0      0      0       0       0   8.750  105.587
 2025 126   197   195  34.544     2  0.591    343     35      0    192    667    667      0      0    0.0  0.000    289   0.00   0.00   1.00   0.81   0.00   0.00   0.00   1.00   2.53  761.4   0.00      0    289    274.2   0.00   0.00 0.8339   0.010   0.006   0.003   0.002   0.001   0.000   0.000   0.000   0.000   0.000      0      0      0       0       0   9.750  115.337
 2025 127   198   196  34.939     2  0.609    351     43      0    200    691    691      0      0    0.0  0.000    297   0.00   0.00   1.00   0.80   0.00   0.00   0.00   1.00   2.51  752.3   0.00      0    297    274.2   0.00   0.00 0.8388   0.011   0.006   0.003   0.002   0.001   0.000   0.000   0.000   0.000   0.000      0      0      0       0       0  10.050  125.387
 2025 128   199   197  35.394     2  0.622    358     50      0    206    712    712      0      0    0.0  0.000    304   0.00   0.00   1.00   0.79   0.00   0.00   0.00   1.00   2.50  741.5   0.00      0    304    274.2   0.00   0.00 0.8445   0.011   0.006   0.003   0.002   0.002   0.000   0.000   0.000   0.000   0.000      0      0      0       0       0  11.550  136.937
 2025 129   200   198  35.794     2  0.647    369     62      0    216    745    745      0      0    0.0  0.000    314   0.00   0.00   1.00   0.79   0.00   0.00   0.00   1.00   2.47  732.5   0.00      0    314    274.2   0.00   0.00 0.8495   0.011   0.006   0.003   0.003   0.002   0.000   0.000   0.000   0.000   0.000      0      0      0       0       0  10.150  147.087
 2025 130   201   199  36.225     2  0.673    379     73      0    227    777    777      0      0    0.0  0.000    325   0.00   0.00   1.00   0.80   0.00   0.00   0.00   1.00   2.43  723.3   0.00      0    325    274.2   0.00   0.00 0.8548   0.011   0.006   0.004   0.003   0.002   0.001   0.000   0.000   0.000   0.000      0      0      0       0       0  10.929  158.016
 2025 131   202   200  36.717     2  0.698    389     86      0    237    809    809      0      0    0.0  0.000    334   0.00   0.00   1.00   0.82   0.00   0.00   0.00   1.00   2.39  713.1   0.00      0    334    274.2   0.00   0.00 0.8610   0.011   0.007   0.004   0.003   0.002   0.001   0.000   0.000   0.000   0.000      0      0      0       0       0  12.500  170.516
 2025 132   203   201  37.245     2  0.721    398     98      0    247    839    839      0      0    0.0  0.000    343   0.00   0.00   1.00   0.83   0.00   0.00   0.00   1.00   2.36  702.2   0.00      0    343    274.2   0.00   0.00 0.8675   0.011   0.007   0.004   0.003   0.002   0.001   0.000   0.000   0.000   0.000      0      0      0       0       0  13.400  183.916
 2025 133   204   202  37.745     2  0.742    406    109      0    255    867    867      0      0    0.0  0.000    352   0.00   0.00   1.00   0.84   0.00   0.00   0.00   1.00   2.34  692.1   0.00      0    352    274.2   0.00   0.00 0.8738   0.012   0.007   0.004   0.003   0.002   0.001   0.000   0.000   0.000   0.000      0      0      0       0       0  12.700  196.616
 2025 134   205   203  38.250     2  0.762    414    122      0    264    895    895      0      0    0.0  0.000    360   0.00   0.00   1.00   0.85   0.00   0.00   0.00   1.00   2.31  682.2   0.00      0    360    274.2   0.00   0.00 0.8800   0.012   0.007   0.004   0.003   0.002   0.001   0.000   0.000   0.000   0.000      0      0      0       0       0  12.800  209.416
 2025 135   206   204  38.726     2  0.779    421    133      0    271    920    920      0      0    0.0  0.000    366   0.00   0.00   1.00   0.85   0.00   0.00   0.00   1.00   2.30  672.9   0.00      0    366    274.2   0.00   0.00 0.8860   0.012   0.007   0.004   0.003   0.002   0.001   0.000   0.000   0.000   0.000      0      0      0       0       0  12.100  221.516
 2025 136   207   205  39.087     2  0.795    427    143      0    277    942    942      0      0    0.0  0.000    372   0.00   0.00   1.00   0.86   0.00   0.00   0.00   1.00   2.28  666.1   0.00      0    372    274.2   0.00   0.00 0.8905   0.012   0.008   0.004   0.003   0.002   0.001   0.000   0.000   0.000   0.000      0      0      0       0       0   9.150  230.666
 2025 137   208   206  39.512     2  0.813    433    155      0    285    967    967      0      0    0.0  0.000    379   0.00   0.00   1.00   0.86   0.00   0.00   0.00   1.00   2.27  658.3   0.00      0    379    274.2   0.00   0.00 0.8958   0.012   0.008   0.005   0.003   0.002   0.001   0.000   0.000   0.000   0.000      0      0      0       0       0  10.800  241.466
 2025 138   209   207  39.997     2  0.828    439    167      0    291    991    991      0      0    0.0  0.000    385   0.00   0.00   1.00   0.86   0.00   0.00   0.00   1.00   2.25  649.4   0.00      0    385    274.2   0.00   0.00 0.9018   0.012   0.008   0.005   0.003   0.002   0.001   0.000   0.000   0.000   0.000      0      0      0       0       0  12.300  253.766
 2025 139   210   208  40.468     2  0.840    446    182      0    300   1020   1020      0      0    0.0  0.000    392   0.00   0.00   1.00   0.85   0.00   0.00   0.00   1.00   2.23  641.1   0.00      0    392    274.2   0.00   0.00 0.9050   0.012   0.008   0.005   0.003   0.002   0.001   0.000   0.000   0.000   0.000      0      0      0       0       0  11.950  265.716
[...]
 2025 151   222   220  50.300     3  4.898   2535   2421      0   3229   7745   7745      0      0    0.0  0.000   2789   0.77   1.00   1.17   0.20   0.00   0.00   0.00   1.00   2.49 1509.3   0.00      0   2789    274.2   0.00   0.00 0.9492   0.220   0.072   0.039   0.028   0.021   0.009   0.000   0.000   0.000   0.000      0      0      0       0       0  20.750  100.371
 2025 152   223   221  51.816     3  4.837   2535   2516      0   3222   7840   7840      0      0    0.0  0.000   2789   0.60   1.00   1.00   0.10   0.00   0.00   0.00   1.00   2.49 1493.7   0.00      0   2789    274.2   0.00   0.00 0.9548   0.219   0.071   0.038   0.028   0.020   0.009   0.000   0.000   0.000   0.000      0      0      0       0       0  20.850  121.221
 2025 153   224   222  52.969     3  4.807   2535   2678      0   3219   8002   8002      0      0    0.0  0.000   2789   0.00   0.57   1.00   0.05   0.00   0.00   0.00   1.00   2.49 1481.1   0.00      0   2789    274.2   0.00   0.00 0.9591   0.218   0.071   0.038   0.027   0.020   0.009   0.000   0.000   0.000   0.000      0      0      0       0       0  15.850  137.071
 2025 154   225   223  54.267     3  4.773   2535   2939      0   3234   8263   8263      0      0    0.0  0.000   2789   0.03   0.69   1.00   0.00   0.00   0.00   0.00   1.00   2.49 1466.4   0.00      0   2789    274.2   0.00   0.00 0.9638   0.217   0.072   0.038   0.027   0.020   0.009   0.000   0.000   0.000   0.000      0      0      0       0       0  17.850  154.921
 2025 155   226   224  55.558     3  4.739   2535   3116      0   3235   8440   8440      0      0    0.0  0.000   2789   0.10   0.75   1.00   0.00   0.00   0.00   0.00   1.00   2.49 1451.3   0.00      0   2789    274.2   0.00   0.00 0.9686   0.217   0.073   0.038   0.027   0.020   0.010   0.000   0.000   0.000   0.000      0      0      0       0       0  17.750  172.671
 2025 156   227   225  56.743     3  4.706   2535   3288      0   3239   8612   8612      0      0    0.0  0.000   2789   0.24   0.86   1.00   0.00   0.00   0.00   0.00   1.00   2.49 1437.3   0.00      0   2789    274.2   0.00   0.00 0.9730   0.216   0.074   0.037   0.027   0.020   0.010   0.000   0.000   0.000   0.000      0      0      0       0       0  16.300  188.971
 2025 157   228   226  57.929     3  4.675   2535   3500      0   3244   8824   8824      0      0    0.0  0.000   2789   0.00   0.64   1.00   0.00   0.00   0.00   0.00   1.00   2.49 1423.1   0.00      0   2789    274.2   0.00   0.00 0.9774   0.215   0.075   0.037   0.026   0.020   0.010   0.000   0.000   0.000   0.000      0      0      0       0       0  16.300  205.271
 2025 158   229   227  59.094     4  4.675   2535   3698      0   3235   9022   9022      0      0    0.0  0.000   2789   0.05   0.71   1.00   0.00   0.00   0.00   0.00   1.00   2.49 1423.1   0.00      0   2789    274.2   0.00   0.00 0.9816   0.215   0.076   0.037   0.026   0.020   0.011   0.000   0.000   0.000   0.000      0      0      0       0       0  15.800    1.071
 2025 159   230   228  60.144     4  4.620   2535   3921      0   3227   9245   9245      0      0    0.0  0.000   2789   0.00   0.65   1.00   0.00   0.00   0.00   0.00   1.00   2.49 1423.1   0.00      0   2789    274.2   0.00   0.00 0.9848   0.214   0.076   0.036   0.026   0.019   0.011   0.000   0.000   0.000   0.000      0      0      0       0       0  11.900   12.971
 2025 160   231   229  61.168     4  4.578   2535   4201      0   3232   9525   9525      0      0    0.0  0.000   2789   0.15   0.79   1.00   0.00   0.00   0.00   0.00   1.00   2.49 1423.1   0.00      0   2789    274.2   0.00   0.00 0.9879   0.213   0.076   0.036   0.026   0.019   0.011   0.000   0.000   0.000   0.000      0      0      0       0       0  11.600   24.571
 2025 161   232   230  62.390     4  4.538   2535   4305      0   3220   9629   9629      0      0    0.0  0.000   2789   0.65   1.00   1.00   0.00   0.00   0.00   0.00   1.00   2.49 1423.1   0.00      0   2789    274.2   0.00   0.00 0.9916   0.212   0.077   0.035   0.025   0.019   0.011   0.001   0.000   0.000   0.000      0      0      0       0       0  13.850   38.421
 2025 162   233   231  64.014     4  4.464   2535   4376      0   3203   9700   9700      0      0    0.0  0.000   2789   0.78   1.00   1.00   0.00   0.00   0.00   0.00   1.00   2.49 1423.1   0.00      0   2789    274.2   0.00   0.00 0.9966   0.210   0.078   0.035   0.025   0.019   0.011   0.001   0.000   0.000   0.000      0      0      0       0       0  18.400   56.821
 2025 163   234   232  65.364     4  4.354   2535   4434      0   3184   9758   9758      0      0    0.0  0.000   2789   0.81   1.00   1.00   0.00   0.00   0.00   0.00   1.00   2.49 1423.1   0.00      0   2789    274.2   0.00   0.00 1.0016   0.208   0.077   0.035   0.025   0.019   0.012   0.001   0.000   0.000   0.000      0      0      0       0       0  18.600   75.421
 2025 164   235   233  66.423     4  4.240   2535   4485      0   3163   9809   9809      0      0    0.0  0.000   2789   0.80   1.00   1.99   0.00   0.00   0.00   0.00   1.00   2.49 1423.1   0.00      0   2789    274.2   0.00   0.00 1.0074   0.206   0.076   0.034   0.025   0.018   0.012   0.001   0.000   0.000   0.000      0      0      0       0       0  21.600   97.021
 2025 165   236   234  67.567     4  4.092   2535   4530      0   3141   9855   9855      0      0    0.0  0.000   2789   0.79   1.00   2.73   0.00   0.00   0.00   0.00   1.00   2.49 1423.1   0.00      0   2789    274.2   0.00   0.00 1.0136   0.204   0.075   0.034   0.024   0.018   0.012   0.001   0.000   0.000   0.000      0      0      0       0       0  23.341  120.361
 2025 166   237   235  68.648     4  3.871   2535   4703      0   3134  10027  10027      0      0    0.0  0.000   2789   0.21   0.84   1.00   0.00   0.00   0.00   0.00   1.00   2.49 1423.1   0.00      0   2789    274.2   0.00   0.00 1.0195   0.203   0.075   0.034   0.024   0.018   0.012   0.001   0.000   0.000   0.000      0      0      0       0       0  22.050  142.411
 2025 167   238   236  69.559     4  3.793   2535   4790      0   3120  10114  10114      0      0    0.0  0.000   2789   0.68   1.00   1.00   0.00   0.00   0.00   0.00   1.00   2.49 1423.1   0.00      0   2789    274.2   0.00   0.00 1.0245   0.202   0.074   0.033   0.024   0.018   0.012   0.001   0.000   0.000   0.000      0      0      0       0       0  18.600  161.011
 2025 168   239   237  70.256     5  3.690   2535   4278    586   3092   9602  10188  11975  11975    4.9  0.058   2789   0.76   1.00   1.00   0.00   0.00   0.00   0.00   1.00   2.41 1423.1   0.00      0   2789    274.2   0.00   0.00 1.0293   0.200   0.073   0.033   0.024   0.018   0.013   0.001   0.000   0.000   0.000      0      0      0       0       0  17.950    8.961
 2025 169   240   238  70.826     5  3.685   2535   4183    753   3063   9507  10259  11975  11975    6.3  0.073   2789   0.76   1.00   1.38   0.00   0.00   0.00   0.00   1.00   2.32 1423.1   0.00      0   2789    274.2   0.00   0.00 1.0347   0.198   0.072   0.033   0.023   0.018   0.013   0.001   0.000   0.000   0.000      0      0      0       0       0  19.950   28.911
 2025 170   241   239  71.409     5  3.671   2535   4077    931   3034   9401  10333  11975  11975    7.8  0.090   2789   0.75   1.00   1.19   0.00   0.00   0.00   0.00   1.00   2.23 1423.1   0.00      0   2789    274.2   0.00   0.00 1.0402   0.196   0.072   0.032   0.023   0.017   0.013   0.001   0.000   0.000   0.000      0      0      0       0       0  20.400   49.311
 2025 171   242   240  71.972     5  3.645   2535   3974   1115   3004   9298  10413  11975  11975    9.3  0.107   2789   0.74   1.00   1.00   0.00   0.00   0.00   0.00   1.00   2.15 1423.1   0.00      0   2789    274.2   0.00   0.00 1.0455   0.194   0.071   0.032   0.023   0.017   0.013   0.001   0.000   0.000   0.000      0      0      0       0       0  19.700   69.011
 2025 172   243   241  72.557     5  3.611   2535   3929   1234   2975   9253  10487  11975  11975   10.3  0.118   2789   0.73   1.00   1.93   0.00   0.00   0.00   0.00   1.00   2.06 1423.1   0.00      0   2789    274.2   0.00   0.00 1.0510   0.193   0.070   0.032   0.023   0.017   0.012   0.001   0.000   0.000   0.000      0      0      0       0       0  20.500   89.511
 2025 173   244   242  73.175     5  3.558   2535   3929   1302   2945   9253  10555  11975  11975   10.9  0.123   2789   0.72   1.00   2.68   0.00   0.00   0.00   0.00   1.00   2.00 1423.1   0.00      0   2789    274.2   0.00   0.00 1.0568   0.191   0.070   0.031   0.022   0.017   0.012   0.001   0.000   0.000   0.000      0      0      0       0       0  21.616  111.127
 2025 174   245   243  73.808     5  3.461   2535   3929   1365   2915   9253  10618  11975  11975   11.4  0.129   2789   0.72   1.00   1.30   0.00   0.00   0.00   0.00   1.00   1.94 1423.1   0.00      0   2789    274.2   0.00   0.00 1.0627   0.189   0.069   0.031   0.022   0.017   0.012   0.001   0.000   0.000   0.000      0      0      0       0       0  22.150  133.277
 2025 175   246   244  74.379     5  3.388   2535   3929   1448   2886   9253  10701  11975  11975   12.1  0.135   2789   0.71   1.00   1.00   0.00   0.00   0.00   0.00   1.00   1.86 1423.1   0.00      0   2789    274.2   0.00   0.00 1.0681   0.187   0.068   0.031   0.022   0.016   0.012   0.001   0.000   0.000   0.000      0      0      0       0       0  20.000  153.277
 2025 176   247   245  75.036     5  3.312   2535   3929   1517   2857   9253  10770  11975  11975   12.7  0.141   2789   0.70   1.00   2.24   0.00   0.00   0.00   0.00   1.00   1.80 1423.1   0.00      0   2789    274.2   0.00   0.00 1.0743   0.185   0.068   0.031   0.022   0.016   0.012   0.001   0.000   0.000   0.000      0      0      0       0       0  23.000  176.277
 2025 177   248   246  75.702     5  3.176   2535   3929   1573   2829   9253  10827  11975  11975   13.1  0.145   2789   0.69   1.00   1.63   0.00   0.00   0.00   0.00   1.00   1.75 1423.1   0.00      0   2789    274.2   0.00   0.00 1.0805   0.183   0.067   0.030   0.022   0.016   0.012   0.001   0.000   0.000   0.000      0      0      0       0       0  23.300  199.577
 2025 178   249   247  76.276     5  3.062   2535   3929   1681   2801   9253  10935  11975  11975   14.0  0.154   2789   0.39   0.99   1.00   0.00   0.00   0.00   0.00   1.00   1.67 1423.1   0.00      0   2789    274.2   0.00   0.00 1.0859   0.181   0.066   0.030   0.021   0.016   0.012   0.001   0.000   0.000   0.000      0      0      0       0       0  20.100  219.677
 2025 179   250   248  76.944     5  2.980   2535   3929   1763   2773   9253  11016  11975  11975   14.7  0.160   2789   0.62   1.00   1.40   0.00   0.00   0.00   0.00   1.00   1.60 1423.1   0.00      0   2789    274.2   0.00   0.00 1.0922   0.179   0.066   0.030   0.021   0.016   0.012   0.001   0.000   0.000   0.000      0      0      0       0       0  23.350  243.027
 2025 180   251   249  77.626     5  2.850   2535   3929   1826   2745   9253  11080  11975  11975   15.3  0.165   2789   0.67   1.00   2.37   0.00   0.00   0.00   0.00   1.00   1.55 1423.1   0.00      0   2789    274.2   0.00   0.00 1.0986   0.178   0.065   0.029   0.021   0.016   0.011   0.001   0.000   0.000   0.000      0      0      0       0       0  23.894  266.921
 2025 181   252   250  78.391     5  2.622   2535   3929   1881   2717   9253  11134  11975  11975   15.7  0.169   2789   0.66   1.00   2.45   0.00   0.00   0.00   0.00   1.00   1.50 1423.1   0.00      0   2789    274.2   0.00   0.00 1.1058   0.176   0.064   0.029   0.021   0.016   0.011   0.001   0.000   0.000   0.000      0      0      0       0       0  26.766  293.687
 2025 182   253   251  79.138     5  2.332   2535   3929   1952   2690   9253  11205  11975  11975   16.3  0.174   2789   0.36   0.97   3.12   0.00   0.00   0.00   0.00   1.00   1.44 1423.1   0.00      0   2789    274.2   0.00   0.00 1.1128   0.174   0.064   0.029   0.021   0.015   0.011   0.001   0.000   0.000   0.000      0      0      0       0       0  26.149  319.836
 2025 183   254   252  79.891     5  1.940   2535   3929   1990   2663   9253  11244  11975  11975   16.6  0.177   2789   0.64   1.00   3.43   0.00   0.00   0.00   0.00   1.00   1.41 1423.1   0.00      0   2789    274.2   0.00   0.00 1.1199   0.172   0.063   0.028   0.020   0.015   0.011   0.001   0.000   0.000   0.000      0      0      0       0       0  26.342  346.178
 2025 184   255   253  80.498     5  1.470   2535   3929   2038   2637   9253  11291  11975  11975   17.0  0.180   2789   0.63   1.00   1.00   0.00   0.00   0.00   0.00   1.00   1.37 1423.1   0.00      0   2789    274.2   0.00   0.00 1.1256   0.171   0.062   0.028   0.020   0.015   0.011   0.001   0.000   0.000   0.000      0      0      0       0       0  21.250  367.428
 2025 185   256   254  81.111     5  1.290   2535   3929   2090   2610   9253  11344  11975  11975   17.5  0.184   2789   0.62   1.00   1.00   0.00   0.00   0.00   0.00   1.00   1.33 1423.1   0.00      0   2789    274.2   0.00   0.00 1.1313   0.169   0.062   0.028   0.020   0.015   0.011   0.001   0.000   0.000   0.000      0      0      0       0       0  21.450  388.878
 2025 186   257   255  81.702     5  1.098   2535   3929   2136   2584   9253  11390  11975  11975   17.8  0.188   2789   0.61   1.00   1.78   0.00   0.00   0.00   0.00   1.00   1.30 1423.1   0.00      0   2789    274.2   0.00   0.00 1.1369   0.167   0.061   0.028   0.020   0.015   0.011   0.001   0.000   0.000   0.000      0      0      0       0       0  20.700  409.578
 2025 187   258   256  82.295     5  0.872   2535   3929   2167   2558   9253  11421  11975  11975   18.1  0.190   2789   0.61   1.00   1.00   0.00   0.00   0.00   0.00   1.00   1.27 1423.1   0.00      0   2789    274.2   0.00   0.00 1.1424   0.166   0.060   0.027   0.020   0.015   0.011   0.001   0.000   0.000   0.000      0      0      0       0       0  20.750  430.328
 2025 188   259   257  82.844     5  0.669   2535   3929   2194   2533   9253  11448  11975  11975   18.3  0.192   2789   0.60   1.00   1.00   0.00   0.00   0.00   0.00   1.00   1.25 1423.1   0.00      0   2789    274.2   0.00   0.00 1.1476   0.164   0.060   0.027   0.019   0.014   0.011   0.001   0.000   0.000   0.000      0      0      0       0       0  19.200  449.528
 2025 189   260   258  83.279     5  0.475   2535   3929   2218   2507   9253  11471  11975  11975   18.5  0.193   2789   0.53   1.00   1.00   0.00   0.00   0.00   0.00   1.00   1.23 1423.1   0.00      0   2789    274.2   0.00   0.00 1.1517   0.162   0.059   0.027   0.019   0.014   0.011   0.001   0.000   0.000   0.000      0      0      0       0       0  15.250  464.778
 2025 190   261   259  83.704     5  0.325   2535   3929   2234   2482   9253  11488  11975  11975   18.7  0.195   2789   0.57   1.00   1.00   0.00   0.00   0.00   0.00   1.00   1.22 1423.1   0.00      0   2789    274.2   0.00   0.00 1.1557   0.161   0.059   0.027   0.019   0.014   0.010   0.001   0.000   0.000   0.000      0      0      0       0       0  14.850  479.628
 2025 191   262   260  84.217     5  0.168   2535   3929   2244   2458   9253  11497  11975  11975   18.7  0.195   2789   0.58   1.00   1.00   0.00   0.00   0.00   0.00   1.00   1.21 1423.1   0.00      0   2789    274.2   0.00   0.00 1.1605   0.159   0.058   0.026   0.019   0.014   0.010   0.001   0.000   0.000   0.000      0      0      0       0       0  17.950  497.578
 2025 192   263   261  84.774     5  0.000   2535   3930   2244   2433   9254  11497  11975  11975   18.7  0.195   2789   0.58   1.00   1.00   0.00   0.00   0.00   0.00   1.00   1.21 1423.1   0.00      0   2789    274.2   0.00   0.00 1.1657   0.157   0.058   0.026   0.019   0.014   0.010   0.001   0.000   0.000   0.000      0      0      0       0       0  19.500  517.078
 2025 193   264   262  85.324     5  0.000   2535   3930   2244   2409   9254  11498  11975  11975   18.7  0.195   2789   0.57   1.00   1.00   0.00   0.00   0.00   0.00   1.00   1.21 1423.1   0.00      0   2789    274.2   0.00   0.00 1.1709   0.156   0.057   0.026   0.018   0.014   0.010   0.001   0.000   0.000   0.000      0      0      0       0       0  19.250  536.328
 2025 194   265   263  85.911     5  0.000   2535   3931   2244   2385   9255  11498  11975  11975   18.7  0.195   2789   0.56   1.00   1.24   0.00   0.00   0.00   0.00   1.00   1.21 1423.1   0.00      0   2789    274.2   0.00   0.00 1.1764   0.154   0.056   0.025   0.018   0.014   0.010   0.001   0.000   0.000   0.000      0      0      0       0       0  20.550  556.878
 2025 195   266   264  86.434     5  0.000   2535   3931   2244   2361   9255  11499  11975  11975   18.7  0.195   2789   0.00   0.60   1.00   0.00   0.00   0.00   0.00   1.00   1.21 1423.1   0.00      0   2789    274.2   0.00   0.00 1.1813   0.153   0.056   0.025   0.018   0.013   0.010   0.001   0.000   0.000   0.000      0      0      0       0       0  18.300  575.178
 2025 196   267   265  87.002     5  0.000   2535   3931   2244   2337   9255  11499  11975  11975   18.7  0.195   2789   0.04   0.70   1.00   0.00   0.00   0.00   0.00   1.00   1.21 1423.1   0.00      0   2789    274.2   0.00   0.00 1.1867   0.151   0.055   0.025   0.018   0.013   0.010   0.001   0.000   0.000   0.000      0      0      0       0       0  19.900  595.078
 2025 197   268   266  87.477     5  0.000   2535   3932   2244   2314   9256  11499  11975  11975   18.7  0.195   2789   0.00   0.00   1.00   0.00   0.00   0.00   0.00   1.00   1.21 1423.1   0.00      0   2789    274.2   0.00   0.00 1.1911   0.150   0.055   0.025   0.018   0.013   0.010   0.001   0.000   0.000   0.000      0      0      0       0       0  16.600  611.678
 2025 198   269   267  87.879     5  0.000   2535   3932   2244   2291   9256  11500  11975  11975   18.7  0.195   2789   0.00   0.09   1.00   0.00   0.00   0.00   0.00   1.00   1.21 1423.1   0.00      0   2789    274.2   0.00   0.00 1.1949   0.148   0.054   0.024   0.017   0.013   0.010   0.001   0.000   0.000   0.000      0      0      0       0       0  14.100  625.778
 2025 199   270   268  88.415     5  0.000   2535   3932   2244   2268   9256  11500  11975  11975   18.7  0.195   2789   0.00   0.26   1.00   0.00   0.00   0.00   0.00   1.00   1.21 1423.1   0.00      0   2789    274.2   0.00   0.00 1.1999   0.147   0.054   0.024   0.017   0.013   0.009   0.001   0.000   0.000   0.000      0      0      0       0       0  18.750  644.528
 2025 200   271   269  89.005     5  0.000   2535   3933   2244   2245   9257  11501  11975  11975   18.7  0.195   2789   0.00   0.28   1.00   0.00   0.00   0.00   0.00   1.00   1.21 1423.1   0.00      0   2789    274.2   0.00   0.00 1.2055   0.145   0.053   0.024   0.017   0.013   0.009   0.001   0.000   0.000   0.000      0      0      0       0       0  20.650  665.178
 2025 201   272   270  89.627     5  0.000   2535   3933   2244   2223   9257  11501  11975  11975   18.7  0.195   2789   0.00   0.25   1.00   0.00   0.00   0.00   0.00   1.00   1.21 1423.1   0.00      0   2789    274.2   0.00   0.00 1.2087   0.144   0.053   0.024   0.017   0.013   0.009   0.001   0.000   0.000   0.000      0      0      0       0       0  21.750  686.928
 2025 202   273   271  90.000     6  0.000   2535   3933   2244   2200   9257  11501  11975  11975   18.7  0.195   2789   0.00   0.25   1.00   0.00   0.00   0.00   0.00   1.00   1.21 1423.1   0.00      0   2789    274.2   0.00   0.00 1.2087   0.142   0.052   0.024   0.017   0.013   0.009   0.001   0.000   0.000   0.000      0      0      0       0       0  18.100    5.028
 2025 203   274   272  90.000     7  0.000   2535   3933   2244   2200   9257  11501  11975  11975   18.7  0.195   2789   0.00   0.25   1.00   0.00   0.00   0.00   0.00   1.00   1.21 1423.1   0.00      0   2789    274.2   0.00   0.00 1.2087   0.142   0.052   0.024   0.017   0.013   0.009   0.001   0.000   0.000   0.000      0      0      0       0       0  17.750    9.450
