*GROWTH ASPECTS OUTPUT FILE

*DSSAT Cropping System Model Ver. 4.8.2.000 -release  DEC 14, 2025 20:34:40

*RUN   1        : No N                      WHAPS048 HWOC2501    1
 MODEL          : WHAPS048 - Wheat
 EXPERIMENT     : HWOC2501 WH
 DATA PATH      : C:/DSSAT48/Wheat/
 TREATMENT  1   : No N                      WHAPS048
  
!                                                                                                                                                                                                                                             Root Dens. (cm/cm3) by soil depth (cm):
!                                                                                                                                                                                                                                             0-5    5-15   15-30   30-45   45-60   60-90  90-120 120-150 150-180 180-210
@YEAR DOY   DAS   DAP    DCCD  GSTD   LAID   LWAD   SWAD   GWAD   RWAD   VWAD   CWAD   G#AD   G#AD2  GWGD   HIAD   SHAD   WSPD   WSGD   SLFT   NSTD   EWSD  PST1A  PST2A   KSTD   LN%D   TPSM   HIPD   PWDD   PWTD     SLAD   CHTD   CWID   RDPD    RL1D    RL2D    RL3D    RL4D    RL5D    RL6D    RL7D    RL8D    RL9D   RL10D   CDAD   LDAD   SDAD   SNW0C   SNW1C    DTTD   SUMDTT
 2024 297     2     0   0.000     8  0.000      0      0      0      0      0      0      0      0    0.0  0.000      0   0.00   0.00   0.00   0.00   0.00   0.00   0.00   1.00   0.00    0.0   0.00      0      0      0.0   0.00   0.00 0.0030   0.000   0.000   0.000   0.000   0.000   0.000   0.000   0.000   0.000   0.000      0      0      0       0       0   9.450    0.000
 2024 298     3     1   0.000     8  0.000      0      0      0      0      0      0      0      0    0.0  0.000      0   0.00   0.00   0.00   0.00   0.00   0.00   0.00   1.00   0.00    0.0   0.00      0      0      0.0   0.00   0.00 0.0030   0.000   0.000   0.000   0.000   0.000   0.000   0.000   0.000   0.000   0.000      0      0      0       0       0  10.500   10.500
 2024 299     4     2   2.739     9  0.000      0      0      0      0      0      0      0      0    0.0  0.000      0   0.00   0.00   0.00   0.00   0.00   0.00   0.00   1.00   0.00    0.0   0.00      0      0      0.0   0.00   0.00 0.0030   0.000   0.000   0.000   0.000   0.000   0.000   0.000   0.000   0.000   0.000      0      0      0       0       0  11.450   11.450
 2024 300     5     3   5.311     9  0.000      0      0      0      0      0      0      0      0    0.0  0.000      0   0.00   0.00   0.00   0.00   0.00   0.00   0.00   1.00   0.00    0.0   0.00      0      0      0.0   0.00   0.00 0.0144   0.000   0.000   0.000   0.000   0.000   0.000   0.000   0.000   0.000   0.000      0      0      0       0       0  10.750   22.200
 2024 301     6     4   8.086     9  0.000      0      0      0      0      0      0      0      0    0.0  0.000      0   0.00   0.00   0.00   0.00   0.00   0.00   0.00   1.00   0.00    0.0   0.00      0      0      0.0   0.00   0.00 0.0252   0.000   0.000   0.000   0.000   0.000   0.000   0.000   0.000   0.000   0.000      0      0      0       0       0  11.600   33.800
 2024 302     7     5  10.233     1  0.017     14      0      0     23     15     15      0      0    0.0  0.000      1   0.00   0.00   1.00   0.00   0.00   0.00   0.00   1.00   3.87  380.0   0.00      0      1    299.3   0.00   0.00 0.0646   0.037   0.004   0.000   0.000   0.000   0.000   0.000   0.000   0.000   0.000      0      0      0       0       0  12.650    4.650
 2024 303     8     6  10.233     1  0.019     23      0      0     23     25     25      0      0    0.0  0.000      1   0.00   0.00   1.00   0.00   0.00   0.00   0.00   1.00   3.88  380.0   0.00      0      1    299.3   0.00   0.00 0.0939   0.036   0.004   0.000   0.000   0.000   0.000   0.000   0.000   0.000   0.000      0      0      0       0       0  13.300    4.650
 2024 304     9     7  10.233     1  0.021     33      0      0     24     35     35      0      0    0.0  0.000      2   0.00   0.00   1.00   0.00   0.00   0.00   0.00   1.00   4.46  380.0   0.00      0      2    299.3   0.00   0.00 0.1194   0.036   0.004   0.000   0.000   0.000   0.000   0.000   0.000   0.000   0.000      0      0      0       0       0  11.600    4.650
 2024 305    10     8  10.233     1  0.022     43      0      0     24     46     46      0      0    0.0  0.000      2   0.00   0.00   1.00   0.00   0.00   0.00   0.00   1.00   4.88  380.0   0.00      0      2    299.3   0.00   0.00 0.1416   0.036   0.004   0.000   0.000   0.000   0.000   0.000   0.000   0.000   0.000      0      0      0       0       0  10.100    4.650
 2024 306    11     9  10.233     1  0.023     49      0      0     24     52     52      0      0    0.0  0.000      3   0.00   0.00   1.00   0.00   0.00   0.00   0.00   1.00   5.52  380.0   0.00      0      3    299.3   0.00   0.00 0.1578   0.035   0.004   0.000   0.000   0.000   0.000   0.000   0.000   0.000   0.000      0      0      0       0       0   7.350    4.650
 2024 307    12    10  10.235     1  0.024     56      0      0     24     60     60      0      0    0.0  0.000      3   0.00   0.00   1.00   0.00   0.00   0.00   0.00   1.00   5.54  380.0   0.00      0      3    299.3   0.00   0.00 0.1683   0.035   0.004   0.000   0.000   0.000   0.000   0.000   0.000   0.000   0.000      0      0      0       0       0   7.500    4.703
 2024 308    13    11  10.244     1  0.027     58      0      0     24     62     62      0      0    0.0  0.000      4   0.00   0.00   1.00   0.00   0.00   0.00   0.00   1.00   6.15  380.0   0.00      0      4    299.3   0.00   0.00 0.1781   0.035   0.004   0.000   0.000   0.000   0.000   0.000   0.000   0.000   0.000      0      0      0       0       0   6.950    4.884
 2024 309    14    12  10.259     1  0.029     59      0      0     25     64     64      0      0    0.0  0.000      5   0.00   0.00   1.00   0.00   0.00   0.00   0.00   1.00   6.24  380.0   0.00      0      5    299.2   0.00   0.00 0.1868   0.034   0.004   0.000   0.000   0.000   0.000   0.000   0.000   0.000   0.000      0      0      0       0       0   6.200    5.172
 2024 310    15    13  10.272     1  0.031     59      0      0     25     65     65      0      0    0.0  0.000      5   0.00   0.00   1.00   0.00   0.00   0.00   0.00   1.00   6.29  380.0   0.00      0      5    299.2   0.00   0.00 0.1920   0.034   0.004   0.000   0.000   0.000   0.000   0.000   0.000   0.000   0.000      0      0      0       0       0   3.700    5.434
 2024 311    16    14  10.304     1  0.032     60      0      0     25     66     66      0      0    0.0  0.000      6   0.00   0.00   1.00   0.00   0.00   0.00   0.00   1.00   6.29  380.0   0.00      0      6    299.1   0.00   0.00 0.2020   0.034   0.004   0.000   0.000   0.000   0.000   0.000   0.000   0.000   0.000      0      0      0       0       0   7.150    6.075
 2024 312    17    15  10.335     1  0.033     60      0      0     25     67     67      0      0    0.0  0.000      6   0.00   0.00   1.00   0.00   0.00   0.00   0.00   1.00   6.28  380.0   0.00      0      6    299.0   0.00   0.00 0.2100   0.034   0.004   0.000   0.000   0.000   0.000   0.000   0.000   0.000   0.000      0      0      0       0       0   5.700    6.707
 2024 313    18    16  10.366     1  0.034     61      0      0     25     67     67      0      0    0.0  0.000      6   0.00   0.00   1.00   0.00   0.00   0.00   0.00   1.00   6.28  380.0   0.00      0      6    298.9   0.00   0.00 0.2165   0.033   0.004   0.000   0.000   0.000   0.000   0.000   0.000   0.000   0.000      0      0      0       0       0   4.650    7.329
 2024 314    19    17  10.396     1  0.035     61      0      0     25     68     68      0      0    0.0  0.000      7   0.00   0.00   1.00   0.00   0.00   0.00   0.00   1.00   6.27  380.0   0.00      0      7    298.8   0.00   0.00 0.2218   0.033   0.004   0.000   0.000   0.000   0.000   0.000   0.000   0.000   0.000      0      0      0       0       0   3.750    7.922
 2024 315    20    18  10.436     1  0.037     61      0      0     26     69     69      0      0    0.0  0.000      7   0.00   0.00   1.00   0.00   0.00   0.00   0.00   1.00   6.27  380.0   0.00      0      7    298.7   0.00   0.00 0.2279   0.033   0.004   0.000   0.000   0.000   0.000   0.000   0.000   0.000   0.000      0      0      0       0       0   4.350    8.710
 2024 316    21    19  10.472     1  0.037     62      0      0     25     69     69      0      0    0.0  0.000      7   0.00   0.00   1.00   0.00   0.00   0.00   0.00   1.00   6.28  380.0   0.00      0      7    298.6   0.00   0.00 0.2329   0.032   0.004   0.000   0.000   0.000   0.000   0.000   0.000   0.000   0.000      0      0      0       0       0   3.560    9.443
 2024 317    22    20  10.511     1  0.039     62      0      0     26     70     70      0      0    0.0  0.000      8   0.00   0.00   1.00   0.00   0.00   0.00   0.00   1.00   6.25  380.0   0.00      0      8    298.5   0.00   0.00 0.2377   0.032   0.004   0.000   0.000   0.000   0.000   0.000   0.000   0.000   0.000      0      0      0       0       0   3.428   10.227
 2024 318    23    21  10.537     1  0.039     62      0      0     26     71     71      0      0    0.0  0.000      8   0.00   0.00   1.00   0.00   0.00   0.00   0.00   1.00   6.27  380.0   0.00      0      8    298.4   0.00   0.00 0.2406   0.032   0.004   0.000   0.000   0.000   0.000   0.000   0.000   0.000   0.000      0      0      0       0       0   2.076   10.741
 2024 319    24    22  10.571     1  0.040     63      0      0     26     71     71      0      0    0.0  0.000      8   0.00   0.00   1.00   0.00   0.00   0.00   0.00   1.00   6.26  380.0   0.00      0      8    298.3   0.00   0.00 0.2446   0.031   0.004   0.000   0.000   0.000   0.000   0.000   0.000   0.000   0.000      0      0      0       0       0   2.800   11.417
 2024 320    25    23  10.621     1  0.042     63      0      0     26     72     72      0      0    0.0  0.000      9   0.00   0.00   1.00   0.00   0.00   0.00   0.00   1.00   6.24  380.0   0.00      0      9    298.2   0.00   0.00 0.2505   0.031   0.004   0.000   0.000   0.000   0.000   0.000   0.000   0.000   0.000      0      0      0       0       0   4.250   12.416
 2024 321    26    24  10.665     1  0.044     64      0      0     26     74     74      0      0    0.0  0.000     10   0.00   0.00   1.00   0.00   0.00   0.00   0.00   1.00   6.21  380.0   0.00      0     10    298.1   0.00   0.00 0.2560   0.031   0.004   0.000   0.000   0.000   0.000   0.000   0.000   0.000   0.000      0      0      0       0       0   3.906   13.310
 2024 322    27    25  10.708     1  0.045     64      0      0     26     75     75      0      0    0.0  0.000     10   0.00   0.00   1.00   0.00   0.00   0.00   0.00   1.00   6.24  380.0   0.00      0     10    297.9   0.00   0.00 0.2614   0.030   0.004   0.000   0.000   0.000   0.000   0.000   0.000   0.000   0.000      0      0      0       0       0   3.819   14.160
 2024 323    28    26  10.753     1  0.046     65      0      0     26     75     75      0      0    0.0  0.000     10   0.00   0.00   1.00   0.00   0.00   0.00   0.00   1.00   6.23  380.0   0.00      0     10    297.8   0.00   0.00 0.2672   0.030   0.004   0.000   0.000   0.000   0.000   0.000   0.000   0.000   0.000      0      0      0       0       0   4.150   15.060
 2024 324    29    27  10.827     1  0.047     65      0      0     26     76     76      0      0    0.0  0.000     11   0.00   0.00   1.00   0.00   0.00   0.00   0.00   1.00   6.21  380.0   0.00      0     11    297.6   0.00   0.00 0.2771   0.030   0.004   0.000   0.000   0.000   0.000   0.000   0.000   0.000   0.000      0      0      0       0       0   7.050   16.547
 2024 325    30    28  10.863     1  0.049     66      0      0     26     77     77      0      0    0.0  0.000     11   0.00   0.00   1.00   0.00   0.00   0.00   0.00   1.00   6.21  380.0   0.00      0     11    297.5   0.00   0.00 0.2820   0.030   0.004   0.000   0.000   0.000   0.000   0.000   0.000   0.000   0.000      0      0      0       0       0   3.478   17.261
 2024 326    31    29  10.872     1  0.049     66      0      0     26     77     77      0      0    0.0  0.000     11   0.00   0.00   1.00   0.00   0.00   0.00   0.00   1.00   6.25  380.0   0.00      0     11    297.5   0.00   0.00 0.2832   0.029   0.004   0.000   0.000   0.000   0.000   0.000   0.000   0.000   0.000      0      0      0       0       0   0.865   17.433
 2024 327    32    30  10.874     1  0.049     66      0      0     26     77     77      0      0    0.0  0.000     11   0.00   0.00   1.00   0.00   0.00   0.00   0.00   1.00   6.25  380.0   0.00      0     11    297.5   0.00   0.00 0.2835   0.029   0.004   0.000   0.000   0.000   0.000   0.000   0.000   0.000   0.000      0      0      0       0       0   0.222   17.477
 2024 328    33    31  10.896     1  0.050     66      0      0     26     78     78      0      0    0.0  0.000     12   0.00   0.00   1.00   0.00   0.00   0.00   0.00   1.00   6.20  380.0   0.00      0     12    297.4   0.00   0.00 0.2868   0.029   0.004   0.000   0.000   0.000   0.000   0.000   0.000   0.000   0.000      0      0      0       0       0   2.328   17.916
 2024 329    34    32  10.953     1  0.053     67      0      0     27     80     80      0      0    0.0  0.000     13   0.00   0.00   1.00   0.00   0.00   0.00   0.00   1.00   6.15  380.0   0.00      0     13    297.3   0.00   0.00 0.2955   0.028   0.004   0.000   0.000   0.000   0.000   0.000   0.000   0.000   0.000      0      0      0       0       0   6.200   19.054
 2024 330    35    33  11.014     1  0.057     68      0      0     27     83     83      0      0    0.0  0.000     14   0.00   0.00   1.00   0.00   0.00   0.00   0.00   1.00   6.12  380.0   0.00      0     14    297.1   0.00   0.00 0.3052   0.028   0.004   0.000   0.000   0.000   0.000   0.000   0.000   0.000   0.000      0      0      0       0       0   6.900   20.286
 2024 331    36    34  11.070     1  0.060     69      0      0     28     84     84      0      0    0.0  0.000     15   0.00   0.00   1.00   0.00   0.00   0.00   0.00   1.00   6.15  380.0   0.00      0     15    297.0   0.00   0.00 0.3118   0.028   0.004   0.000   0.000   0.000   0.000   0.000   0.000   0.000   0.000      0      0      0       0       0   6.400   21.397
 2024 332    37    35  11.119     1  0.063     70      0      0     29     87     87      0      0    0.0  0.000     16   0.00   0.00   1.00   0.00   0.00   0.00   0.00   1.00   6.12  380.0   0.00      0     16    296.8   0.00   0.00 0.3178   0.028   0.004   0.000   0.000   0.000   0.000   0.000   0.000   0.000   0.000      0      0      0       0       0   5.800   22.376
 2024 333    38    36  11.160     1  0.065     71      0      0     29     88     88      0      0    0.0  0.000     17   0.00   0.00   1.00   0.00   0.00   0.00   0.00   1.00   6.14  380.0   0.00      0     17    296.7   0.00   0.00 0.3231   0.027   0.004   0.000   0.000   0.000   0.000   0.000   0.000   0.000   0.000      0      0      0       0       0   5.050   23.205
 2024 334    39    37  11.183     1  0.067     72      0      0     29     90     90      0      0    0.0  0.000     17   0.00   0.00   1.00   0.00   0.00   0.00   0.00   1.00   6.16  380.0   0.00      0     17    296.7   0.00   0.00 0.3260   0.027   0.004   0.000   0.000   0.000   0.000   0.000   0.000   0.000   0.000      0      0      0       0       0   2.834   23.657
 2024 335    40    38  11.202     1  0.069     73      0      0     31     91     91      0      0    0.0  0.000     18   0.00   0.00   1.00   0.00   0.00   0.00   0.00   1.00   6.15  380.0   0.00      0     18    296.6   0.00   0.00 0.3286   0.027   0.004   0.000   0.000   0.000   0.000   0.000   0.000   0.000   0.000      0      0      0       0       0   2.479   24.043
 2024 336    41    39  11.205     1  0.069     73      0      0     30     91     91      0      0    0.0  0.000     18   0.00   0.00   1.00   0.00   0.00   0.00   0.00   1.00   6.21  380.0   0.00      0     18    296.6   0.00   0.00 0.3290   0.027   0.004   0.000   0.000   0.000   0.000   0.000   0.000   0.000   0.000      0      0      0       0       0   0.358   24.097
 2024 337    42    40  11.224     1  0.071     73      0      0     30     92     92      0      0    0.0  0.000     19   0.00   0.00   1.00   0.00   0.00   0.00   0.00   1.00   6.17  380.0   0.00      0     19    296.5   0.00   0.00 0.3317   0.027   0.004   0.000   0.000   0.000   0.000   0.000   0.000   0.000   0.000      0      0      0       0       0   2.605   24.481
 2024 338    43    41  11.250     1  0.072     74      0      0     30     93     93      0      0    0.0  0.000     19   0.00   0.00   1.00   0.00   0.00   0.00   0.00   1.00   6.16  380.0   0.00      0     19    296.5   0.00   0.00 0.3354   0.026   0.004   0.000   0.000   0.000   0.000   0.000   0.000   0.000   0.000      0      0      0       0       0   3.600   24.998
 2024 339    44    42  11.263     1  0.073     74      0      0     31     94     94      0      0    0.0  0.000     19   0.00   0.00   1.00   0.00   0.00   0.00   0.00   1.00   6.18  380.0   0.00      0     19    296.4   0.00   0.00 0.3373   0.026   0.003   0.000   0.000   0.000   0.000   0.000   0.000   0.000   0.000      0      0      0       0       0   1.805   25.251
 2024 340    45    43  11.272     1  0.073     74      0      0     30     94     94      0      0    0.0  0.000     19   0.00   0.00   1.00   0.00   0.00   0.00   0.00   1.00   6.20  380.0   0.00      0     19    296.4   0.00   0.00 0.3387   0.026   0.003   0.000   0.000   0.000   0.000   0.000   0.000   0.000   0.000      0      0      0       0       0   1.383   25.440
 2024 341    46    44  11.301     1  0.075     74      0      0     30     95     95      0      0    0.0  0.000     20   0.00   0.00   1.00   0.00   0.00   0.00   0.00   1.00   6.16  380.0   0.00      0     20    296.3   0.00   0.00 0.3432   0.026   0.003   0.000   0.000   0.000   0.000   0.000   0.000   0.000   0.000      0      0      0       0       0   4.300   26.013
 2024 342    47    45  11.318     1  0.076     75      0      0     30     95     95      0      0    0.0  0.000     20   0.00   0.00   1.00   0.00   0.00   0.00   0.00   1.00   6.16  380.0   0.00      0     20    296.3   0.00   0.00 0.3459   0.025   0.003   0.000   0.000   0.000   0.000   0.000   0.000   0.000   0.000      0      0      0       0       0   2.600   26.352
 2024 343    48    46  11.336     1  0.077     75      0      0     31     96     96      0      0    0.0  0.000     21   0.00   0.00   1.00   0.00   0.00   0.00   0.00   1.00   6.15  380.0   0.00      0     21    296.2   0.00   0.00 0.3489   0.025   0.003   0.000   0.000   0.000   0.000   0.000   0.000   0.000   0.000      0      0      0       0       0   2.907   26.723
 2024 344    49    47  11.349     1  0.078     75      0      0     31     97     97      0      0    0.0  0.000     21   0.00   0.00   1.00   0.00   0.00   0.00   0.00   1.00   6.16  380.0   0.00      0     21    296.2   0.00   0.00 0.3510   0.025   0.003   0.000   0.000   0.000   0.000   0.000   0.000   0.000   0.000      0      0      0       0       0   2.009   26.973
 2024 345    50    48  11.358     1  0.078     75      0      0     30     97     97      0      0    0.0  0.000     21   0.00   0.00   1.00   0.00   0.00   0.00   0.00   1.00   6.18  380.0   0.00      0     21    296.2   0.00   0.00 0.3525   0.025   0.003   0.000   0.000   0.000   0.000   0.000   0.000   0.000   0.000      0      0      0       0       0   1.485   27.155
 2024 346    51    49  11.367     1  0.078     76      0      0     30     97     97      0      0    0.0  0.000     21   0.00   0.00   1.00   0.00   0.00   0.00   0.00   1.00   6.18  380.0   0.00      0     21    296.2   0.00   0.00 0.3540   0.024   0.003   0.000   0.000   0.000   0.000   0.000   0.000   0.000   0.000      0      0      0       0       0   1.474   27.332
 2024 347    52    50  11.372     1  0.078     76      0      0     30     97     97      0      0    0.0  0.000     21   0.00   0.00   1.00   0.00   0.00   0.00   0.00   1.00   6.19  380.0   0.00      0     21    296.2   0.00   0.00 0.3551   0.024   0.003   0.000   0.000   0.000   0.000   0.000   0.000   0.000   0.000      0      0      0       0       0   0.970   27.447
 2024 348    53    51  11.375     1  0.078     76      0      0     30     97     97      0      0    0.0  0.000     21   0.00   0.00   1.00   0.00   0.00   0.00   0.00   1.00   6.19  380.0   0.00      0     21    296.1   0.00   0.00 0.3555   0.024   0.003   0.000   0.000   0.000   0.000   0.000   0.000   0.000   0.000      0      0      0       0       0   0.474   27.502
 2024 349    54    52  11.382     1  0.078     76      0      0     29     97     97      0      0    0.0  0.000     21   0.00   0.00   1.00   0.00   0.00   0.00   0.00   1.00   6.19  380.0   0.00      0     21    296.1   0.00   0.00 0.3568   0.024   0.003   0.000   0.000   0.000   0.000   0.000   0.000   0.000   0.000      0      0      0       0       0   1.184   27.638
 2024 350    55    53  11.392     1  0.079     76      0      0     29     98     98      0      0    0.0  0.000     21   0.00   0.00   1.00   0.00   0.00   0.00   0.00   1.00   6.16  380.0   0.00      0     21    296.1   0.00   0.00 0.3586   0.023   0.003   0.000   0.000   0.000   0.000   0.000   0.000   0.000   0.000      0      0      0       0       0   1.767   27.838
 2024 351    56    54  11.415     1  0.081     76      0      0     29     99     99      0      0    0.0  0.000     22   0.00   0.00   1.00   0.00   0.00   0.00   0.00   1.00   6.14  380.0   0.00      0     22    296.0   0.00   0.00 0.3629   0.023   0.003   0.000   0.000   0.000   0.000   0.000   0.000   0.000   0.000      0      0      0       0       0   4.100   28.297
 2024 352    57    55  11.439     1  0.083     77      0      0     30    100    100      0      0    0.0  0.000     23   0.00   0.00   1.00   0.00   0.00   0.00   0.00   1.00   6.12  380.0   0.00      0     23    296.0   0.00   0.00 0.3674   0.023   0.003   0.000   0.000   0.000   0.000   0.000   0.000   0.000   0.000      0      0      0       0       0   4.350   28.780
 2024 353    58    56  11.466     1  0.085     78      0      0     30    102    102      0      0    0.0  0.000     24   0.00   0.00   1.00   0.00   0.00   0.00   0.00   1.00   6.07  380.0   0.00      0     24    295.9   0.00   0.00 0.3725   0.023   0.003   0.000   0.000   0.000   0.000   0.000   0.000   0.000   0.000      0      0      0       0       0   4.900   29.320
 2024 354    59    57  11.501     1  0.088     79      0      0     31    104    104      0      0    0.0  0.000     24   0.00   0.00   1.00   0.00   0.00   0.00   0.00   1.00   6.02  380.0   0.00      0     24    295.8   0.00   0.00 0.3792   0.023   0.003   0.000   0.000   0.000   0.000   0.000   0.000   0.000   0.000      0      0      0       0       0   6.450   30.027
 2024 355    60    58  11.510     1  0.088     79      0      0     31    104    104      0      0    0.0  0.000     25   0.00   0.00   1.00   0.00   0.00   0.00   0.00   1.00   6.03  380.0   0.00      0     25    295.8   0.00   0.00 0.3809   0.022   0.003   0.000   0.000   0.000   0.000   0.000   0.000   0.000   0.000      0      0      0       0       0   1.655   30.208
 2024 356    61    59  11.522     1  0.090     79      0      0     31    105    105      0      0    0.0  0.000     25   0.00   0.00   1.00   0.00   0.00   0.00   0.00   1.00   6.01  380.0   0.00      0     25    295.8   0.00   0.00 0.3832   0.022   0.003   0.000   0.000   0.000   0.000   0.000   0.000   0.000   0.000      0      0      0       0       0   2.175   30.445
 2024 357    62    60  11.541     1  0.091     80      0      0     31    106    106      0      0    0.0  0.000     25   0.00   0.00   1.00   0.00   0.00   0.00   0.00   1.00   6.00  380.0   0.00      0     25    295.7   0.00   0.00 0.3867   0.022   0.003   0.000   0.000   0.000   0.000   0.000   0.000   0.000   0.000      0      0      0       0       0   3.388   30.815
 2024 358    63    61  11.549     1  0.091     80      0      0     31    106    106      0      0    0.0  0.000     26   0.00   0.00   1.00   0.00   0.00   0.00   0.00   1.00   6.00  380.0   0.00      0     26    295.7   0.00   0.00 0.3882   0.022   0.003   0.000   0.000   0.000   0.000   0.000   0.000   0.000   0.000      0      0      0       0       0   1.456   30.975
 2024 359    64    62  11.561     1  0.093     80      0      0     31    107    107      0      0    0.0  0.000     26   0.00   0.00   1.00   0.00   0.00   0.00   0.00   1.00   5.97  380.0   0.00      0     26    295.7   0.00   0.00 0.3905   0.021   0.003   0.000   0.000   0.000   0.000   0.000   0.000   0.000   0.000      0      0      0       0       0   2.199   31.216
 2024 360    65    63  11.571     1  0.094     81      0      0     31    108    108      0      0    0.0  0.000     26   0.00   0.00   1.00   0.00   0.00   0.00   0.00   1.00   5.96  380.0   0.00      0     26    295.6   0.00   0.00 0.3924   0.021   0.003   0.000   0.000   0.000   0.000   0.000   0.000   0.000   0.000      0      0      0       0       0   1.911   31.428
 2024 361    66    64  11.575     1  0.094     81      0      0     31    108    108      0      0    0.0  0.000     26   0.00   0.00   1.00   0.00   0.00   0.00   0.00   1.00   5.97  380.0   0.00      0     26    295.6   0.00   0.00 0.3932   0.021   0.003   0.000   0.000   0.000   0.000   0.000   0.000   0.000   0.000      0      0      0       0       0   0.706   31.507
 2024 362    67    65  11.578     1  0.094     81      0      0     30    108    108      0      0    0.0  0.000     26   0.00   0.00   1.00   0.00   0.00   0.00   0.00   1.00   5.98  380.0   0.00      0     26    295.6   0.00   0.00 0.3937   0.021   0.003   0.000   0.000   0.000   0.000   0.000   0.000   0.000   0.000      0      0      0       0       0   0.495   31.563
 2024 363    68    66  11.582     1  0.094     81      0      0     30    108    108      0      0    0.0  0.000     26   0.00   0.00   1.00   0.00   0.00   0.00   0.00   1.00   6.00  380.0   0.00      0     26    295.6   0.00   0.00 0.3945   0.021   0.003   0.000   0.000   0.000   0.000   0.000   0.000   0.000   0.000      0      0      0       0       0   0.731   31.646
 2024 364    69    67  11.584     1  0.094     81      0      0     30    108    108      0      0    0.0  0.000     26   0.00   0.00   1.00   0.00   0.00   0.00   0.00   1.00   6.01  380.0   0.00      0     26    295.6   0.00   0.00 0.3948   0.020   0.003   0.000   0.000   0.000   0.000   0.000   0.000   0.000   0.000      0      0      0       0       0   0.319   31.683
 2024 365    70    68  11.586     1  0.094     81      0      0     30    108    108      0      0    0.0  0.000     26   0.00   0.00   1.00   0.00   0.00   0.00   0.00   1.00   6.02  380.0   0.00      0     26    295.6   0.00   0.00 0.3951   0.020   0.003   0.000   0.000   0.000   0.000   0.000   0.000   0.000   0.000      0      0      0       0       0   0.313   31.720
 2024 366    71    69  11.588     1  0.094     81      0      0     29    108    108      0      0    0.0  0.000     26   0.00   0.00   1.00   0.00   0.00   0.00   0.00   1.00   6.03  380.0   0.00      0     26    295.6   0.00   0.00 0.3954   0.020   0.003   0.000   0.000   0.000   0.000   0.000   0.000   0.000   0.000      0      0      0       0       0   0.319   31.758
 2025 001    72    70  11.590     1  0.094     81      0      0     29    108    108      0      0    0.0  0.000     26   0.00   0.00   1.00   0.00   0.00   0.00   0.00   1.00   6.04  380.0   0.00      0     26    295.6   0.00   0.00 0.3958   0.020   0.003   0.000   0.000   0.000   0.000   0.000   0.000   0.000   0.000      0      0      0       0       0   0.319   31.796

*DSSAT Cropping System Model Ver. 4.8.2.000 -release  DEC 14, 2025 20:34:40

*RUN   2        : 147 kg[N]/ha - broadcast  WHAPS048 HWOC2501    3
 MODEL          : WHAPS048 - Wheat
 EXPERIMENT     : HWOC2501 WH
 DATA PATH      : C:/DSSAT48/Wheat/
 TREATMENT  3   : 147 kg[N]/ha - broadcast  WHAPS048
  
!                                                                                                                                                                                                                                             Root Dens. (cm/cm3) by soil depth (cm):
!                                                                                                                                                                                                                                             0-5    5-15   15-30   30-45   45-60   60-90  90-120 120-150 150-180 180-210
@YEAR DOY   DAS   DAP    DCCD  GSTD   LAID   LWAD   SWAD   GWAD   RWAD   VWAD   CWAD   G#AD   G#AD2  GWGD   HIAD   SHAD   WSPD   WSGD   SLFT   NSTD   EWSD  PST1A  PST2A   KSTD   LN%D   TPSM   HIPD   PWDD   PWTD     SLAD   CHTD   CWID   RDPD    RL1D    RL2D    RL3D    RL4D    RL5D    RL6D    RL7D    RL8D    RL9D   RL10D   CDAD   LDAD   SDAD   SNW0C   SNW1C    DTTD   SUMDTT
 2024 297     2     0   0.000     8  0.000      0      0      0      0      0      0      0      0    0.0  0.000      0   0.00   0.00   0.00   0.00   0.00   0.00   0.00   1.00   0.00    0.0   0.00      0      0      0.0   0.00   0.00 0.0030   0.000   0.000   0.000   0.000   0.000   0.000   0.000   0.000   0.000   0.000      0      0      0       0       0   9.450    0.000
 2024 298     3     1   0.000     8  0.000      0      0      0      0      0      0      0      0    0.0  0.000      0   0.00   0.00   0.00   0.00   0.00   0.00   0.00   1.00   0.00    0.0   0.00      0      0      0.0   0.00   0.00 0.0030   0.000   0.000   0.000   0.000   0.000   0.000   0.000   0.000   0.000   0.000      0      0      0       0       0  10.500   10.500
 2024 299     4     2   2.739     9  0.000      0      0      0      0      0      0      0      0    0.0  0.000      0   0.00   0.00   0.00   0.00   0.00   0.00   0.00   1.00   0.00    0.0   0.00      0      0      0.0   0.00   0.00 0.0030   0.000   0.000   0.000   0.000   0.000   0.000   0.000   0.000   0.000   0.000      0      0      0       0       0  11.450   11.450
 2024 300     5     3   5.311     9  0.000      0      0      0      0      0      0      0      0    0.0  0.000      0   0.00   0.00   0.00   0.00   0.00   0.00   0.00   1.00   0.00    0.0   0.00      0      0      0.0   0.00   0.00 0.0144   0.000   0.000   0.000   0.000   0.000   0.000   0.000   0.000   0.000   0.000      0      0      0       0       0  10.750   22.200
 2024 301     6     4   8.086     9  0.000      0      0      0      0      0      0      0      0    0.0  0.000      0   0.00   0.00   0.00   0.00   0.00   0.00   0.00   1.00   0.00    0.0   0.00      0      0      0.0   0.00   0.00 0.0252   0.000   0.000   0.000   0.000   0.000   0.000   0.000   0.000   0.000   0.000      0      0      0       0       0  11.600   33.800
 2024 302     7     5  10.233     1  0.017     14      0      0     23     15     15      0      0    0.0  0.000      1   0.00   0.00   1.00   0.00   0.00   0.00   0.00   1.00   3.87  380.0   0.00      0      1    299.3   0.00   0.00 0.0646   0.037   0.004   0.000   0.000   0.000   0.000   0.000   0.000   0.000   0.000      0      0      0       0       0  12.650    4.650
 2024 303     8     6  10.233     1  0.019     23      0      0     23     25     25      0      0    0.0  0.000      1   0.00   0.00   1.00   0.00   0.00   0.00   0.00   1.00   3.88  380.0   0.00      0      1    299.3   0.00   0.00 0.0939   0.036   0.004   0.000   0.000   0.000   0.000   0.000   0.000   0.000   0.000      0      0      0       0       0  13.300    4.650
 2024 304     9     7  10.233     1  0.021     33      0      0     24     35     35      0      0    0.0  0.000      2   0.00   0.00   1.00   0.00   0.00   0.00   0.00   1.00   4.46  380.0   0.00      0      2    299.3   0.00   0.00 0.1194   0.036   0.004   0.000   0.000   0.000   0.000   0.000   0.000   0.000   0.000      0      0      0       0       0  11.600    4.650
 2024 305    10     8  10.233     1  0.022     43      0      0     24     46     46      0      0    0.0  0.000      2   0.00   0.00   1.00   0.00   0.00   0.00   0.00   1.00   4.88  380.0   0.00      0      2    299.3   0.00   0.00 0.1416   0.036   0.004   0.000   0.000   0.000   0.000   0.000   0.000   0.000   0.000      0      0      0       0       0  10.100    4.650
 2024 306    11     9  10.233     1  0.023     49      0      0     24     52     52      0      0    0.0  0.000      3   0.00   0.00   1.00   0.00   0.00   0.00   0.00   1.00   5.52  380.0   0.00      0      3    299.3   0.00   0.00 0.1578   0.035   0.004   0.000   0.000   0.000   0.000   0.000   0.000   0.000   0.000      0      0      0       0       0   7.350    4.650
 2024 307    12    10  10.235     1  0.024     56      0      0     24     60     60      0      0    0.0  0.000      3   0.00   0.00   1.00   0.00   0.00   0.00   0.00   1.00   5.54  380.0   0.00      0      3    299.3   0.00   0.00 0.1683   0.035   0.004   0.000   0.000   0.000   0.000   0.000   0.000   0.000   0.000      0      0      0       0       0   7.500    4.703
 2024 308    13    11  10.244     1  0.027     58      0      0     24     62     62      0      0    0.0  0.000      4   0.00   0.00   1.00   0.00   0.00   0.00   0.00   1.00   6.15  380.0   0.00      0      4    299.3   0.00   0.00 0.1781   0.035   0.004   0.000   0.000   0.000   0.000   0.000   0.000   0.000   0.000      0      0      0       0       0   6.950    4.884
 2024 309    14    12  10.259     1  0.029     59      0      0     25     64     64      0      0    0.0  0.000      5   0.00   0.00   1.00   0.00   0.00   0.00   0.00   1.00   6.24  380.0   0.00      0      5    299.2   0.00   0.00 0.1868   0.034   0.004   0.000   0.000   0.000   0.000   0.000   0.000   0.000   0.000      0      0      0       0       0   6.200    5.172
 2024 310    15    13  10.272     1  0.031     59      0      0     25     65     65      0      0    0.0  0.000      5   0.00   0.00   1.00   0.00   0.00   0.00   0.00   1.00   6.29  380.0   0.00      0      5    299.2   0.00   0.00 0.1920   0.034   0.004   0.000   0.000   0.000   0.000   0.000   0.000   0.000   0.000      0      0      0       0       0   3.700    5.434
 2024 311    16    14  10.304     1  0.032     60      0      0     25     66     66      0      0    0.0  0.000      6   0.00   0.00   1.00   0.00   0.00   0.00   0.00   1.00   6.29  380.0   0.00      0      6    299.1   0.00   0.00 0.2020   0.034   0.004   0.000   0.000   0.000   0.000   0.000   0.000   0.000   0.000      0      0      0       0       0   7.150    6.075
 2024 312    17    15  10.335     1  0.033     60      0      0     25     67     67      0      0    0.0  0.000      6   0.00   0.00   1.00   0.00   0.00   0.00   0.00   1.00   6.28  380.0   0.00      0      6    299.0   0.00   0.00 0.2100   0.034   0.004   0.000   0.000   0.000   0.000   0.000   0.000   0.000   0.000      0      0      0       0       0   5.700    6.707
 2024 313    18    16  10.366     1  0.034     61      0      0     25     67     67      0      0    0.0  0.000      6   0.00   0.00   1.00   0.00   0.00   0.00   0.00   1.00   6.28  380.0   0.00      0      6    298.9   0.00   0.00 0.2165   0.033   0.004   0.000   0.000   0.000   0.000   0.000   0.000   0.000   0.000      0      0      0       0       0   4.650    7.329
 2024 314    19    17  10.396     1  0.035     61      0      0     25     68     68      0      0    0.0  0.000      7   0.00   0.00   1.00   0.00   0.00   0.00   0.00   1.00   6.27  380.0   0.00      0      7    298.8   0.00   0.00 0.2218   0.033   0.004   0.000   0.000   0.000   0.000   0.000   0.000   0.000   0.000      0      0      0       0       0   3.750    7.922
 2024 315    20    18  10.436     1  0.037     61      0      0     26     69     69      0      0    0.0  0.000      7   0.00   0.00   1.00   0.00   0.00   0.00   0.00   1.00   6.27  380.0   0.00      0      7    298.7   0.00   0.00 0.2279   0.033   0.004   0.000   0.000   0.000   0.000   0.000   0.000   0.000   0.000      0      0      0       0       0   4.350    8.710
 2024 316    21    19  10.472     1  0.037     62      0      0     25     69     69      0      0    0.0  0.000      7   0.00   0.00   1.00   0.00   0.00   0.00   0.00   1.00   6.28  380.0   0.00      0      7    298.6   0.00   0.00 0.2329   0.032   0.004   0.000   0.000   0.000   0.000   0.000   0.000   0.000   0.000      0      0      0       0       0   3.560    9.443
 2024 317    22    20  10.511     1  0.039     62      0      0     26     70     70      0      0    0.0  0.000      8   0.00   0.00   1.00   0.00   0.00   0.00   0.00   1.00   6.25  380.0   0.00      0      8    298.5   0.00   0.00 0.2377   0.032   0.004   0.000   0.000   0.000   0.000   0.000   0.000   0.000   0.000      0      0      0       0       0   3.428   10.227
 2024 318    23    21  10.537     1  0.039     62      0      0     26     71     71      0      0    0.0  0.000      8   0.00   0.00   1.00   0.00   0.00   0.00   0.00   1.00   6.27  380.0   0.00      0      8    298.4   0.00   0.00 0.2406   0.032   0.004   0.000   0.000   0.000   0.000   0.000   0.000   0.000   0.000      0      0      0       0       0   2.076   10.741
 2024 319    24    22  10.571     1  0.040     63      0      0     26     71     71      0      0    0.0  0.000      8   0.00   0.00   1.00   0.00   0.00   0.00   0.00   1.00   6.26  380.0   0.00      0      8    298.3   0.00   0.00 0.2446   0.031   0.004   0.000   0.000   0.000   0.000   0.000   0.000   0.000   0.000      0      0      0       0       0   2.800   11.417
 2024 320    25    23  10.621     1  0.042     63      0      0     26     72     72      0      0    0.0  0.000      9   0.00   0.00   1.00   0.00   0.00   0.00   0.00   1.00   6.24  380.0   0.00      0      9    298.2   0.00   0.00 0.2505   0.031   0.004   0.000   0.000   0.000   0.000   0.000   0.000   0.000   0.000      0      0      0       0       0   4.250   12.416
 2024 321    26    24  10.665     1  0.044     64      0      0     26     74     74      0      0    0.0  0.000     10   0.00   0.00   1.00   0.00   0.00   0.00   0.00   1.00   6.21  380.0   0.00      0     10    298.1   0.00   0.00 0.2560   0.031   0.004   0.000   0.000   0.000   0.000   0.000   0.000   0.000   0.000      0      0      0       0       0   3.906   13.310
 2024 322    27    25  10.708     1  0.045     64      0      0     26     75     75      0      0    0.0  0.000     10   0.00   0.00   1.00   0.00   0.00   0.00   0.00   1.00   6.24  380.0   0.00      0     10    297.9   0.00   0.00 0.2614   0.030   0.004   0.000   0.000   0.000   0.000   0.000   0.000   0.000   0.000      0      0      0       0       0   3.819   14.160
 2024 323    28    26  10.753     1  0.046     65      0      0     26     75     75      0      0    0.0  0.000     10   0.00   0.00   1.00   0.00   0.00   0.00   0.00   1.00   6.23  380.0   0.00      0     10    297.8   0.00   0.00 0.2672   0.030   0.004   0.000   0.000   0.000   0.000   0.000   0.000   0.000   0.000      0      0      0       0       0   4.150   15.060
 2024 324    29    27  10.827     1  0.047     65      0      0     26     76     76      0      0    0.0  0.000     11   0.00   0.00   1.00   0.00   0.00   0.00   0.00   1.00   6.21  380.0   0.00      0     11    297.6   0.00   0.00 0.2771   0.030   0.004   0.000   0.000   0.000   0.000   0.000   0.000   0.000   0.000      0      0      0       0       0   7.050   16.547
 2024 325    30    28  10.863     1  0.049     66      0      0     26     77     77      0      0    0.0  0.000     11   0.00   0.00   1.00   0.00   0.00   0.00   0.00   1.00   6.21  380.0   0.00      0     11    297.5   0.00   0.00 0.2820   0.030   0.004   0.000   0.000   0.000   0.000   0.000   0.000   0.000   0.000      0      0      0       0       0   3.478   17.261
 2024 326    31    29  10.872     1  0.049     66      0      0     26     77     77      0      0    0.0  0.000     11   0.00   0.00   1.00   0.00   0.00   0.00   0.00   1.00   6.25  380.0   0.00      0     11    297.5   0.00   0.00 0.2832   0.029   0.004   0.000   0.000   0.000   0.000   0.000   0.000   0.000   0.000      0      0      0       0       0   0.865   17.433
 2024 327    32    30  10.874     1  0.049     66      0      0     26     77     77      0      0    0.0  0.000     11   0.00   0.00   1.00   0.00   0.00   0.00   0.00   1.00   6.25  380.0   0.00      0     11    297.5   0.00   0.00 0.2835   0.029   0.004   0.000   0.000   0.000   0.000   0.000   0.000   0.000   0.000      0      0      0       0       0   0.222   17.477
 2024 328    33    31  10.896     1  0.050     66      0      0     26     78     78      0      0    0.0  0.000     12   0.00   0.00   1.00   0.00   0.00   0.00   0.00   1.00   6.20  380.0   0.00      0     12    297.4   0.00   0.00 0.2868   0.029   0.004   0.000   0.000   0.000   0.000   0.000   0.000   0.000   0.000      0      0      0       0       0   2.328   17.916
 2024 329    34    32  10.953     1  0.053     67      0      0     27     80     80      0      0    0.0  0.000     13   0.00   0.00   1.00   0.00   0.00   0.00   0.00   1.00   6.15  380.0   0.00      0     13    297.3   0.00   0.00 0.2955   0.028   0.004   0.000   0.000   0.000   0.000   0.000   0.000   0.000   0.000      0      0      0       0       0   6.200   19.054
 2024 330    35    33  11.014     1  0.057     68      0      0     27     83     83      0      0    0.0  0.000     14   0.00   0.00   1.00   0.00   0.00   0.00   0.00   1.00   6.12  380.0   0.00      0     14    297.1   0.00   0.00 0.3052   0.028   0.004   0.000   0.000   0.000   0.000   0.000   0.000   0.000   0.000      0      0      0       0       0   6.900   20.286
 2024 331    36    34  11.070     1  0.060     69      0      0     28     84     84      0      0    0.0  0.000     15   0.00   0.00   1.00   0.00   0.00   0.00   0.00   1.00   6.15  380.0   0.00      0     15    297.0   0.00   0.00 0.3118   0.028   0.004   0.000   0.000   0.000   0.000   0.000   0.000   0.000   0.000      0      0      0       0       0   6.400   21.397
 2024 332    37    35  11.119     1  0.063     70      0      0     29     87     87      0      0    0.0  0.000     16   0.00   0.00   1.00   0.00   0.00   0.00   0.00   1.00   6.12  380.0   0.00      0     16    296.8   0.00   0.00 0.3178   0.028   0.004   0.000   0.000   0.000   0.000   0.000   0.000   0.000   0.000      0      0      0       0       0   5.800   22.376
 2024 333    38    36  11.160     1  0.065     71      0      0     29     88     88      0      0    0.0  0.000     17   0.00   0.00   1.00   0.00   0.00   0.00   0.00   1.00   6.14  380.0   0.00      0     17    296.7   0.00   0.00 0.3231   0.027   0.004   0.000   0.000   0.000   0.000   0.000   0.000   0.000   0.000      0      0      0       0       0   5.050   23.205
 2024 334    39    37  11.183     1  0.067     72      0      0     29     90     90      0      0    0.0  0.000     17   0.00   0.00   1.00   0.00   0.00   0.00   0.00   1.00   6.16  380.0   0.00      0     17    296.7   0.00   0.00 0.3260   0.027   0.004   0.000   0.000   0.000   0.000   0.000   0.000   0.000   0.000      0      0      0       0       0   2.834   23.657
 2024 335    40    38  11.202     1  0.069     73      0      0     31     91     91      0      0    0.0  0.000     18   0.00   0.00   1.00   0.00   0.00   0.00   0.00   1.00   6.15  380.0   0.00      0     18    296.6   0.00   0.00 0.3286   0.027   0.004   0.000   0.000   0.000   0.000   0.000   0.000   0.000   0.000      0      0      0       0       0   2.479   24.043
 2024 336    41    39  11.205     1  0.069     73      0      0     30     91     91      0      0    0.0  0.000     18   0.00   0.00   1.00   0.00   0.00   0.00   0.00   1.00   6.21  380.0   0.00      0     18    296.6   0.00   0.00 0.3290   0.027   0.004   0.000   0.000   0.000   0.000   0.000   0.000   0.000   0.000      0      0      0       0       0   0.358   24.097
 2024 337    42    40  11.224     1  0.071     73      0      0     30     92     92      0      0    0.0  0.000     19   0.00   0.00   1.00   0.00   0.00   0.00   0.00   1.00   6.17  380.0   0.00      0     19    296.5   0.00   0.00 0.3317   0.027   0.004   0.000   0.000   0.000   0.000   0.000   0.000   0.000   0.000      0      0      0       0       0   2.605   24.481
 2024 338    43    41  11.250     1  0.072     74      0      0     30     93     93      0      0    0.0  0.000     19   0.00   0.00   1.00   0.00   0.00   0.00   0.00   1.00   6.16  380.0   0.00      0     19    296.5   0.00   0.00 0.3354   0.026   0.004   0.000   0.000   0.000   0.000   0.000   0.000   0.000   0.000      0      0      0       0       0   3.600   24.998
 2024 339    44    42  11.263     1  0.073     74      0      0     31     94     94      0      0    0.0  0.000     19   0.00   0.00   1.00   0.00   0.00   0.00   0.00   1.00   6.18  380.0   0.00      0     19    296.4   0.00   0.00 0.3373   0.026   0.003   0.000   0.000   0.000   0.000   0.000   0.000   0.000   0.000      0      0      0       0       0   1.805   25.251
 2024 340    45    43  11.272     1  0.073     74      0      0     30     94     94      0      0    0.0  0.000     19   0.00   0.00   1.00   0.00   0.00   0.00   0.00   1.00   6.20  380.0   0.00      0     19    296.4   0.00   0.00 0.3387   0.026   0.003   0.000   0.000   0.000   0.000   0.000   0.000   0.000   0.000      0      0      0       0       0   1.383   25.440
 2024 341    46    44  11.301     1  0.075     74      0      0     30     95     95      0      0    0.0  0.000     20   0.00   0.00   1.00   0.00   0.00   0.00   0.00   1.00   6.16  380.0   0.00      0     20    296.3   0.00   0.00 0.3432   0.026   0.003   0.000   0.000   0.000   0.000   0.000   0.000   0.000   0.000      0      0      0       0       0   4.300   26.013
 2024 342    47    45  11.318     1  0.076     75      0      0     30     95     95      0      0    0.0  0.000     20   0.00   0.00   1.00   0.00   0.00   0.00   0.00   1.00   6.16  380.0   0.00      0     20    296.3   0.00   0.00 0.3459   0.025   0.003   0.000   0.000   0.000   0.000   0.000   0.000   0.000   0.000      0      0      0       0       0   2.600   26.352
 2024 343    48    46  11.336     1  0.077     75      0      0     31     96     96      0      0    0.0  0.000     21   0.00   0.00   1.00   0.00   0.00   0.00   0.00   1.00   6.15  380.0   0.00      0     21    296.2   0.00   0.00 0.3489   0.025   0.003   0.000   0.000   0.000   0.000   0.000   0.000   0.000   0.000      0      0      0       0       0   2.907   26.723
 2024 344    49    47  11.349     1  0.078     75      0      0     31     97     97      0      0    0.0  0.000     21   0.00   0.00   1.00   0.00   0.00   0.00   0.00   1.00   6.16  380.0   0.00      0     21    296.2   0.00   0.00 0.3510   0.025   0.003   0.000   0.000   0.000   0.000   0.000   0.000   0.000   0.000      0      0      0       0       0   2.009   26.973
 2024 345    50    48  11.358     1  0.078     75      0      0     30     97     97      0      0    0.0  0.000     21   0.00   0.00   1.00   0.00   0.00   0.00   0.00   1.00   6.18  380.0   0.00      0     21    296.2   0.00   0.00 0.3525   0.025   0.003   0.000   0.000   0.000   0.000   0.000   0.000   0.000   0.000      0      0      0       0       0   1.485   27.155
 2024 346    51    49  11.367     1  0.078     76      0      0     30     97     97      0      0    0.0  0.000     21   0.00   0.00   1.00   0.00   0.00   0.00   0.00   1.00   6.18  380.0   0.00      0     21    296.2   0.00   0.00 0.3540   0.024   0.003   0.000   0.000   0.000   0.000   0.000   0.000   0.000   0.000      0      0      0       0       0   1.474   27.332
 2024 347    52    50  11.372     1  0.078     76      0      0     30     97     97      0      0    0.0  0.000     21   0.00   0.00   1.00   0.00   0.00   0.00   0.00   1.00   6.19  380.0   0.00      0     21    296.2   0.00   0.00 0.3551   0.024   0.003   0.000   0.000   0.000   0.000   0.000   0.000   0.000   0.000      0      0      0       0       0   0.970   27.447
 2024 348    53    51  11.375     1  0.078     76      0      0     30     97     97      0      0    0.0  0.000     21   0.00   0.00   1.00   0.00   0.00   0.00   0.00   1.00   6.19  380.0   0.00      0     21    296.1   0.00   0.00 0.3555   0.024   0.003   0.000   0.000   0.000   0.000   0.000   0.000   0.000   0.000      0      0      0       0       0   0.474   27.502
 2024 349    54    52  11.382     1  0.078     76      0      0     29     97     97      0      0    0.0  0.000     21   0.00   0.00   1.00   0.00   0.00   0.00   0.00   1.00   6.19  380.0   0.00      0     21    296.1   0.00   0.00 0.3568   0.024   0.003   0.000   0.000   0.000   0.000   0.000   0.000   0.000   0.000      0      0      0       0       0   1.184   27.638
 2024 350    55    53  11.392     1  0.079     76      0      0     29     98     98      0      0    0.0  0.000     21   0.00   0.00   1.00   0.00   0.00   0.00   0.00   1.00   6.16  380.0   0.00      0     21    296.1   0.00   0.00 0.3586   0.023   0.003   0.000   0.000   0.000   0.000   0.000   0.000   0.000   0.000      0      0      0       0       0   1.767   27.838
 2024 351    56    54  11.415     1  0.081     76      0      0     29     99     99      0      0    0.0  0.000     22   0.00   0.00   1.00   0.00   0.00   0.00   0.00   1.00   6.14  380.0   0.00      0     22    296.0   0.00   0.00 0.3629   0.023   0.003   0.000   0.000   0.000   0.000   0.000   0.000   0.000   0.000      0      0      0       0       0   4.100   28.297
 2024 352    57    55  11.439     1  0.083     77      0      0     30    100    100      0      0    0.0  0.000     23   0.00   0.00   1.00   0.00   0.00   0.00   0.00   1.00   6.12  380.0   0.00      0     23    296.0   0.00   0.00 0.3674   0.023   0.003   0.000   0.000   0.000   0.000   0.000   0.000   0.000   0.000      0      0      0       0       0   4.350   28.780
 2024 353    58    56  11.466     1  0.085     78      0      0     30    102    102      0      0    0.0  0.000     24   0.00   0.00   1.00   0.00   0.00   0.00   0.00   1.00   6.07  380.0   0.00      0     24    295.9   0.00   0.00 0.3725   0.023   0.003   0.000   0.000   0.000   0.000   0.000   0.000   0.000   0.000      0      0      0       0       0   4.900   29.320
 2024 354    59    57  11.501     1  0.088     79      0      0     31    104    104      0      0    0.0  0.000     24   0.00   0.00   1.00   0.00   0.00   0.00   0.00   1.00   6.02  380.0   0.00      0     24    295.8   0.00   0.00 0.3792   0.023   0.003   0.000   0.000   0.000   0.000   0.000   0.000   0.000   0.000      0      0      0       0       0   6.450   30.027
 2024 355    60    58  11.510     1  0.088     79      0      0     31    104    104      0      0    0.0  0.000     25   0.00   0.00   1.00   0.00   0.00   0.00   0.00   1.00   6.03  380.0   0.00      0     25    295.8   0.00   0.00 0.3809   0.022   0.003   0.000   0.000   0.000   0.000   0.000   0.000   0.000   0.000      0      0      0       0       0   1.655   30.208
 2024 356    61    59  11.522     1  0.090     79      0      0     31    105    105      0      0    0.0  0.000     25   0.00   0.00   1.00   0.00   0.00   0.00   0.00   1.00   6.01  380.0   0.00      0     25    295.8   0.00   0.00 0.3832   0.022   0.003   0.000   0.000   0.000   0.000   0.000   0.000   0.000   0.000      0      0      0       0       0   2.175   30.445
 2024 357    62    60  11.541     1  0.091     80      0      0     31    106    106      0      0    0.0  0.000     25   0.00   0.00   1.00   0.00   0.00   0.00   0.00   1.00   6.00  380.0   0.00      0     25    295.7   0.00   0.00 0.3867   0.022   0.003   0.000   0.000   0.000   0.000   0.000   0.000   0.000   0.000      0      0      0       0       0   3.388   30.815
 2024 358    63    61  11.549     1  0.091     80      0      0     31    106    106      0      0    0.0  0.000     26   0.00   0.00   1.00   0.00   0.00   0.00   0.00   1.00   6.00  380.0   0.00      0     26    295.7   0.00   0.00 0.3882   0.022   0.003   0.000   0.000   0.000   0.000   0.000   0.000   0.000   0.000      0      0      0       0       0   1.456   30.975
 2024 359    64    62  11.561     1  0.093     80      0      0     31    107    107      0      0    0.0  0.000     26   0.00   0.00   1.00   0.00   0.00   0.00   0.00   1.00   5.97  380.0   0.00      0     26    295.7   0.00   0.00 0.3905   0.021   0.003   0.000   0.000   0.000   0.000   0.000   0.000   0.000   0.000      0      0      0       0       0   2.199   31.216
 2024 360    65    63  11.571     1  0.094     81      0      0     31    108    108      0      0    0.0  0.000     26   0.00   0.00   1.00   0.00   0.00   0.00   0.00   1.00   5.96  380.0   0.00      0     26    295.6   0.00   0.00 0.3924   0.021   0.003   0.000   0.000   0.000   0.000   0.000   0.000   0.000   0.000      0      0      0       0       0   1.911   31.428
 2024 361    66    64  11.575     1  0.094     81      0      0     31    108    108      0      0    0.0  0.000     26   0.00   0.00   1.00   0.00   0.00   0.00   0.00   1.00   5.97  380.0   0.00      0     26    295.6   0.00   0.00 0.3932   0.021   0.003   0.000   0.000   0.000   0.000   0.000   0.000   0.000   0.000      0      0      0       0       0   0.706   31.507
 2024 362    67    65  11.578     1  0.094     81      0      0     30    108    108      0      0    0.0  0.000     26   0.00   0.00   1.00   0.00   0.00   0.00   0.00   1.00   5.98  380.0   0.00      0     26    295.6   0.00   0.00 0.3937   0.021   0.003   0.000   0.000   0.000   0.000   0.000   0.000   0.000   0.000      0      0      0       0       0   0.495   31.563
 2024 363    68    66  11.582     1  0.094     81      0      0     30    108    108      0      0    0.0  0.000     26   0.00   0.00   1.00   0.00   0.00   0.00   0.00   1.00   6.00  380.0   0.00      0     26    295.6   0.00   0.00 0.3945   0.021   0.003   0.000   0.000   0.000   0.000   0.000   0.000   0.000   0.000      0      0      0       0       0   0.731   31.646
 2024 364    69    67  11.584     1  0.094     81      0      0     30    108    108      0      0    0.0  0.000     26   0.00   0.00   1.00   0.00   0.00   0.00   0.00   1.00   6.01  380.0   0.00      0     26    295.6   0.00   0.00 0.3948   0.020   0.003   0.000   0.000   0.000   0.000   0.000   0.000   0.000   0.000      0      0      0       0       0   0.319   31.683
 2024 365    70    68  11.586     1  0.094     81      0      0     30    108    108      0      0    0.0  0.000     26   0.00   0.00   1.00   0.00   0.00   0.00   0.00   1.00   6.02  380.0   0.00      0     26    295.6   0.00   0.00 0.3951   0.020   0.003   0.000   0.000   0.000   0.000   0.000   0.000   0.000   0.000      0      0      0       0       0   0.313   31.720
 2024 366    71    69  11.588     1  0.094     81      0      0     29    108    108      0      0    0.0  0.000     26   0.00   0.00   1.00   0.00   0.00   0.00   0.00   1.00   6.03  380.0   0.00      0     26    295.6   0.00   0.00 0.3954   0.020   0.003   0.000   0.000   0.000   0.000   0.000   0.000   0.000   0.000      0      0      0       0       0   0.319   31.758
 2025 001    72    70  11.590     1  0.094     81      0      0     29    108    108      0      0    0.0  0.000     26   0.00   0.00   1.00   0.00   0.00   0.00   0.00   1.00   6.04  380.0   0.00      0     26    295.6   0.00   0.00 0.3958   0.020   0.003   0.000   0.000   0.000   0.000   0.000   0.000   0.000   0.000      0      0      0       0       0   0.319   31.796

*DSSAT Cropping System Model Ver. 4.8.2.000 -release  DEC 14, 2025 20:34:40

*RUN   3        : 180 kg[N]/ha - broadcast  WHAPS048 HWOC2501    7
 MODEL          : WHAPS048 - Wheat
 EXPERIMENT     : HWOC2501 WH
 DATA PATH      : C:/DSSAT48/Wheat/
 TREATMENT  7   : 180 kg[N]/ha - broadcast  WHAPS048
  
!                                                                                                                                                                                                                                             Root Dens. (cm/cm3) by soil depth (cm):
!                                                                                                                                                                                                                                             0-5    5-15   15-30   30-45   45-60   60-90  90-120 120-150 150-180 180-210
@YEAR DOY   DAS   DAP    DCCD  GSTD   LAID   LWAD   SWAD   GWAD   RWAD   VWAD   CWAD   G#AD   G#AD2  GWGD   HIAD   SHAD   WSPD   WSGD   SLFT   NSTD   EWSD  PST1A  PST2A   KSTD   LN%D   TPSM   HIPD   PWDD   PWTD     SLAD   CHTD   CWID   RDPD    RL1D    RL2D    RL3D    RL4D    RL5D    RL6D    RL7D    RL8D    RL9D   RL10D   CDAD   LDAD   SDAD   SNW0C   SNW1C    DTTD   SUMDTT
 2024 297     2     0   0.000     8  0.000      0      0      0      0      0      0      0      0    0.0  0.000      0   0.00   0.00   0.00   0.00   0.00   0.00   0.00   1.00   0.00    0.0   0.00      0      0      0.0   0.00   0.00 0.0030   0.000   0.000   0.000   0.000   0.000   0.000   0.000   0.000   0.000   0.000      0      0      0       0       0   9.450    0.000
 2024 298     3     1   0.000     8  0.000      0      0      0      0      0      0      0      0    0.0  0.000      0   0.00   0.00   0.00   0.00   0.00   0.00   0.00   1.00   0.00    0.0   0.00      0      0      0.0   0.00   0.00 0.0030   0.000   0.000   0.000   0.000   0.000   0.000   0.000   0.000   0.000   0.000      0      0      0       0       0  10.500   10.500
 2024 299     4     2   2.739     9  0.000      0      0      0      0      0      0      0      0    0.0  0.000      0   0.00   0.00   0.00   0.00   0.00   0.00   0.00   1.00   0.00    0.0   0.00      0      0      0.0   0.00   0.00 0.0030   0.000   0.000   0.000   0.000   0.000   0.000   0.000   0.000   0.000   0.000      0      0      0       0       0  11.450   11.450
 2024 300     5     3   5.311     9  0.000      0      0      0      0      0      0      0      0    0.0  0.000      0   0.00   0.00   0.00   0.00   0.00   0.00   0.00   1.00   0.00    0.0   0.00      0      0      0.0   0.00   0.00 0.0144   0.000   0.000   0.000   0.000   0.000   0.000   0.000   0.000   0.000   0.000      0      0      0       0       0  10.750   22.200
 2024 301     6     4   8.086     9  0.000      0      0      0      0      0      0      0      0    0.0  0.000      0   0.00   0.00   0.00   0.00   0.00   0.00   0.00   1.00   0.00    0.0   0.00      0      0      0.0   0.00   0.00 0.0252   0.000   0.000   0.000   0.000   0.000   0.000   0.000   0.000   0.000   0.000      0      0      0       0       0  11.600   33.800
 2024 302     7     5  10.233     1  0.017     14      0      0     23     15     15      0      0    0.0  0.000      1   0.00   0.00   1.00   0.00   0.00   0.00   0.00   1.00   3.87  380.0   0.00      0      1    299.3   0.00   0.00 0.0646   0.037   0.004   0.000   0.000   0.000   0.000   0.000   0.000   0.000   0.000      0      0      0       0       0  12.650    4.650
 2024 303     8     6  10.233     1  0.019     23      0      0     23     25     25      0      0    0.0  0.000      1   0.00   0.00   1.00   0.00   0.00   0.00   0.00   1.00   3.88  380.0   0.00      0      1    299.3   0.00   0.00 0.0939   0.036   0.004   0.000   0.000   0.000   0.000   0.000   0.000   0.000   0.000      0      0      0       0       0  13.300    4.650
 2024 304     9     7  10.233     1  0.021     33      0      0     24     35     35      0      0    0.0  0.000      2   0.00   0.00   1.00   0.00   0.00   0.00   0.00   1.00   4.46  380.0   0.00      0      2    299.3   0.00   0.00 0.1194   0.036   0.004   0.000   0.000   0.000   0.000   0.000   0.000   0.000   0.000      0      0      0       0       0  11.600    4.650
 2024 305    10     8  10.233     1  0.022     43      0      0     24     46     46      0      0    0.0  0.000      2   0.00   0.00   1.00   0.00   0.00   0.00   0.00   1.00   4.88  380.0   0.00      0      2    299.3   0.00   0.00 0.1416   0.036   0.004   0.000   0.000   0.000   0.000   0.000   0.000   0.000   0.000      0      0      0       0       0  10.100    4.650
 2024 306    11     9  10.233     1  0.023     49      0      0     24     52     52      0      0    0.0  0.000      3   0.00   0.00   1.00   0.00   0.00   0.00   0.00   1.00   5.52  380.0   0.00      0      3    299.3   0.00   0.00 0.1578   0.035   0.004   0.000   0.000   0.000   0.000   0.000   0.000   0.000   0.000      0      0      0       0       0   7.350    4.650
 2024 307    12    10  10.235     1  0.024     56      0      0     24     60     60      0      0    0.0  0.000      3   0.00   0.00   1.00   0.00   0.00   0.00   0.00   1.00   5.54  380.0   0.00      0      3    299.3   0.00   0.00 0.1683   0.035   0.004   0.000   0.000   0.000   0.000   0.000   0.000   0.000   0.000      0      0      0       0       0   7.500    4.703
 2024 308    13    11  10.244     1  0.027     58      0      0     24     62     62      0      0    0.0  0.000      4   0.00   0.00   1.00   0.00   0.00   0.00   0.00   1.00   6.15  380.0   0.00      0      4    299.3   0.00   0.00 0.1781   0.035   0.004   0.000   0.000   0.000   0.000   0.000   0.000   0.000   0.000      0      0      0       0       0   6.950    4.884
 2024 309    14    12  10.259     1  0.029     59      0      0     25     64     64      0      0    0.0  0.000      5   0.00   0.00   1.00   0.00   0.00   0.00   0.00   1.00   6.24  380.0   0.00      0      5    299.2   0.00   0.00 0.1868   0.034   0.004   0.000   0.000   0.000   0.000   0.000   0.000   0.000   0.000      0      0      0       0       0   6.200    5.172
 2024 310    15    13  10.272     1  0.031     59      0      0     25     65     65      0      0    0.0  0.000      5   0.00   0.00   1.00   0.00   0.00   0.00   0.00   1.00   6.29  380.0   0.00      0      5    299.2   0.00   0.00 0.1920   0.034   0.004   0.000   0.000   0.000   0.000   0.000   0.000   0.000   0.000      0      0      0       0       0   3.700    5.434
 2024 311    16    14  10.304     1  0.032     60      0      0     25     66     66      0      0    0.0  0.000      6   0.00   0.00   1.00   0.00   0.00   0.00   0.00   1.00   6.29  380.0   0.00      0      6    299.1   0.00   0.00 0.2020   0.034   0.004   0.000   0.000   0.000   0.000   0.000   0.000   0.000   0.000      0      0      0       0       0   7.150    6.075
 2024 312    17    15  10.335     1  0.033     60      0      0     25     67     67      0      0    0.0  0.000      6   0.00   0.00   1.00   0.00   0.00   0.00   0.00   1.00   6.28  380.0   0.00      0      6    299.0   0.00   0.00 0.2100   0.034   0.004   0.000   0.000   0.000   0.000   0.000   0.000   0.000   0.000      0      0      0       0       0   5.700    6.707
 2024 313    18    16  10.366     1  0.034     61      0      0     25     67     67      0      0    0.0  0.000      6   0.00   0.00   1.00   0.00   0.00   0.00   0.00   1.00   6.28  380.0   0.00      0      6    298.9   0.00   0.00 0.2165   0.033   0.004   0.000   0.000   0.000   0.000   0.000   0.000   0.000   0.000      0      0      0       0       0   4.650    7.329
 2024 314    19    17  10.396     1  0.035     61      0      0     25     68     68      0      0    0.0  0.000      7   0.00   0.00   1.00   0.00   0.00   0.00   0.00   1.00   6.27  380.0   0.00      0      7    298.8   0.00   0.00 0.2218   0.033   0.004   0.000   0.000   0.000   0.000   0.000   0.000   0.000   0.000      0      0      0       0       0   3.750    7.922
 2024 315    20    18  10.436     1  0.037     61      0      0     26     69     69      0      0    0.0  0.000      7   0.00   0.00   1.00   0.00   0.00   0.00   0.00   1.00   6.27  380.0   0.00      0      7    298.7   0.00   0.00 0.2279   0.033   0.004   0.000   0.000   0.000   0.000   0.000   0.000   0.000   0.000      0      0      0       0       0   4.350    8.710
 2024 316    21    19  10.472     1  0.037     62      0      0     25     69     69      0      0    0.0  0.000      7   0.00   0.00   1.00   0.00   0.00   0.00   0.00   1.00   6.28  380.0   0.00      0      7    298.6   0.00   0.00 0.2329   0.032   0.004   0.000   0.000   0.000   0.000   0.000   0.000   0.000   0.000      0      0      0       0       0   3.560    9.443
 2024 317    22    20  10.511     1  0.039     62      0      0     26     70     70      0      0    0.0  0.000      8   0.00   0.00   1.00   0.00   0.00   0.00   0.00   1.00   6.25  380.0   0.00      0      8    298.5   0.00   0.00 0.2377   0.032   0.004   0.000   0.000   0.000   0.000   0.000   0.000   0.000   0.000      0      0      0       0       0   3.428   10.227
 2024 318    23    21  10.537     1  0.039     62      0      0     26     71     71      0      0    0.0  0.000      8   0.00   0.00   1.00   0.00   0.00   0.00   0.00   1.00   6.27  380.0   0.00      0      8    298.4   0.00   0.00 0.2406   0.032   0.004   0.000   0.000   0.000   0.000   0.000   0.000   0.000   0.000      0      0      0       0       0   2.076   10.741
 2024 319    24    22  10.571     1  0.040     63      0      0     26     71     71      0      0    0.0  0.000      8   0.00   0.00   1.00   0.00   0.00   0.00   0.00   1.00   6.26  380.0   0.00      0      8    298.3   0.00   0.00 0.2446   0.031   0.004   0.000   0.000   0.000   0.000   0.000   0.000   0.000   0.000      0      0      0       0       0   2.800   11.417
 2024 320    25    23  10.621     1  0.042     63      0      0     26     72     72      0      0    0.0  0.000      9   0.00   0.00   1.00   0.00   0.00   0.00   0.00   1.00   6.24  380.0   0.00      0      9    298.2   0.00   0.00 0.2505   0.031   0.004   0.000   0.000   0.000   0.000   0.000   0.000   0.000   0.000      0      0      0       0       0   4.250   12.416
 2024 321    26    24  10.665     1  0.044     64      0      0     26     74     74      0      0    0.0  0.000     10   0.00   0.00   1.00   0.00   0.00   0.00   0.00   1.00   6.21  380.0   0.00      0     10    298.1   0.00   0.00 0.2560   0.031   0.004   0.000   0.000   0.000   0.000   0.000   0.000   0.000   0.000      0      0      0       0       0   3.906   13.310
 2024 322    27    25  10.708     1  0.045     64      0      0     26     75     75      0      0    0.0  0.000     10   0.00   0.00   1.00   0.00   0.00   0.00   0.00   1.00   6.24  380.0   0.00      0     10    297.9   0.00   0.00 0.2614   0.030   0.004   0.000   0.000   0.000   0.000   0.000   0.000   0.000   0.000      0      0      0       0       0   3.819   14.160
 2024 323    28    26  10.753     1  0.046     65      0      0     26     75     75      0      0    0.0  0.000     10   0.00   0.00   1.00   0.00   0.00   0.00   0.00   1.00   6.23  380.0   0.00      0     10    297.8   0.00   0.00 0.2672   0.030   0.004   0.000   0.000   0.000   0.000   0.000   0.000   0.000   0.000      0      0      0       0       0   4.150   15.060
 2024 324    29    27  10.827     1  0.047     65      0      0     26     76     76      0      0    0.0  0.000     11   0.00   0.00   1.00   0.00   0.00   0.00   0.00   1.00   6.21  380.0   0.00      0     11    297.6   0.00   0.00 0.2771   0.030   0.004   0.000   0.000   0.000   0.000   0.000   0.000   0.000   0.000      0      0      0       0       0   7.050   16.547
 2024 325    30    28  10.863     1  0.049     66      0      0     26     77     77      0      0    0.0  0.000     11   0.00   0.00   1.00   0.00   0.00   0.00   0.00   1.00   6.21  380.0   0.00      0     11    297.5   0.00   0.00 0.2820   0.030   0.004   0.000   0.000   0.000   0.000   0.000   0.000   0.000   0.000      0      0      0       0       0   3.478   17.261
 2024 326    31    29  10.872     1  0.049     66      0      0     26     77     77      0      0    0.0  0.000     11   0.00   0.00   1.00   0.00   0.00   0.00   0.00   1.00   6.25  380.0   0.00      0     11    297.5   0.00   0.00 0.2832   0.029   0.004   0.000   0.000   0.000   0.000   0.000   0.000   0.000   0.000      0      0      0       0       0   0.865   17.433
 2024 327    32    30  10.874     1  0.049     66      0      0     26     77     77      0      0    0.0  0.000     11   0.00   0.00   1.00   0.00   0.00   0.00   0.00   1.00   6.25  380.0   0.00      0     11    297.5   0.00   0.00 0.2835   0.029   0.004   0.000   0.000   0.000   0.000   0.000   0.000   0.000   0.000      0      0      0       0       0   0.222   17.477
 2024 328    33    31  10.896     1  0.050     66      0      0     26     78     78      0      0    0.0  0.000     12   0.00   0.00   1.00   0.00   0.00   0.00   0.00   1.00   6.20  380.0   0.00      0     12    297.4   0.00   0.00 0.2868   0.029   0.004   0.000   0.000   0.000   0.000   0.000   0.000   0.000   0.000      0      0      0       0       0   2.328   17.916
 2024 329    34    32  10.953     1  0.053     67      0      0     27     80     80      0      0    0.0  0.000     13   0.00   0.00   1.00   0.00   0.00   0.00   0.00   1.00   6.15  380.0   0.00      0     13    297.3   0.00   0.00 0.2955   0.028   0.004   0.000   0.000   0.000   0.000   0.000   0.000   0.000   0.000      0      0      0       0       0   6.200   19.054
 2024 330    35    33  11.014     1  0.057     68      0      0     27     83     83      0      0    0.0  0.000     14   0.00   0.00   1.00   0.00   0.00   0.00   0.00   1.00   6.12  380.0   0.00      0     14    297.1   0.00   0.00 0.3052   0.028   0.004   0.000   0.000   0.000   0.000   0.000   0.000   0.000   0.000      0      0      0       0       0   6.900   20.286
 2024 331    36    34  11.070     1  0.060     69      0      0     28     84     84      0      0    0.0  0.000     15   0.00   0.00   1.00   0.00   0.00   0.00   0.00   1.00   6.15  380.0   0.00      0     15    297.0   0.00   0.00 0.3118   0.028   0.004   0.000   0.000   0.000   0.000   0.000   0.000   0.000   0.000      0      0      0       0       0   6.400   21.397
 2024 332    37    35  11.119     1  0.063     70      0      0     29     87     87      0      0    0.0  0.000     16   0.00   0.00   1.00   0.00   0.00   0.00   0.00   1.00   6.12  380.0   0.00      0     16    296.8   0.00   0.00 0.3178   0.028   0.004   0.000   0.000   0.000   0.000   0.000   0.000   0.000   0.000      0      0      0       0       0   5.800   22.376
 2024 333    38    36  11.160     1  0.065     71      0      0     29     88     88      0      0    0.0  0.000     17   0.00   0.00   1.00   0.00   0.00   0.00   0.00   1.00   6.14  380.0   0.00      0     17    296.7   0.00   0.00 0.3231   0.027   0.004   0.000   0.000   0.000   0.000   0.000   0.000   0.000   0.000      0      0      0       0       0   5.050   23.205
 2024 334    39    37  11.183     1  0.067     72      0      0     29     90     90      0      0    0.0  0.000     17   0.00   0.00   1.00   0.00   0.00   0.00   0.00   1.00   6.16  380.0   0.00      0     17    296.7   0.00   0.00 0.3260   0.027   0.004   0.000   0.000   0.000   0.000   0.000   0.000   0.000   0.000      0      0      0       0       0   2.834   23.657
 2024 335    40    38  11.202     1  0.069     73      0      0     31     91     91      0      0    0.0  0.000     18   0.00   0.00   1.00   0.00   0.00   0.00   0.00   1.00   6.15  380.0   0.00      0     18    296.6   0.00   0.00 0.3286   0.027   0.004   0.000   0.000   0.000   0.000   0.000   0.000   0.000   0.000      0      0      0       0       0   2.479   24.043
 2024 336    41    39  11.205     1  0.069     73      0      0     30     91     91      0      0    0.0  0.000     18   0.00   0.00   1.00   0.00   0.00   0.00   0.00   1.00   6.21  380.0   0.00      0     18    296.6   0.00   0.00 0.3290   0.027   0.004   0.000   0.000   0.000   0.000   0.000   0.000   0.000   0.000      0      0      0       0       0   0.358   24.097
 2024 337    42    40  11.224     1  0.071     73      0      0     30     92     92      0      0    0.0  0.000     19   0.00   0.00   1.00   0.00   0.00   0.00   0.00   1.00   6.17  380.0   0.00      0     19    296.5   0.00   0.00 0.3317   0.027   0.004   0.000   0.000   0.000   0.000   0.000   0.000   0.000   0.000      0      0      0       0       0   2.605   24.481
 2024 338    43    41  11.250     1  0.072     74      0      0     30     93     93      0      0    0.0  0.000     19   0.00   0.00   1.00   0.00   0.00   0.00   0.00   1.00   6.16  380.0   0.00      0     19    296.5   0.00   0.00 0.3354   0.026   0.004   0.000   0.000   0.000   0.000   0.000   0.000   0.000   0.000      0      0      0       0       0   3.600   24.998
 2024 339    44    42  11.263     1  0.073     74      0      0     31     94     94      0      0    0.0  0.000     19   0.00   0.00   1.00   0.00   0.00   0.00   0.00   1.00   6.18  380.0   0.00      0     19    296.4   0.00   0.00 0.3373   0.026   0.003   0.000   0.000   0.000   0.000   0.000   0.000   0.000   0.000      0      0      0       0       0   1.805   25.251
 2024 340    45    43  11.272     1  0.073     74      0      0     30     94     94      0      0    0.0  0.000     19   0.00   0.00   1.00   0.00   0.00   0.00   0.00   1.00   6.20  380.0   0.00      0     19    296.4   0.00   0.00 0.3387   0.026   0.003   0.000   0.000   0.000   0.000   0.000   0.000   0.000   0.000      0      0      0       0       0   1.383   25.440
 2024 341    46    44  11.301     1  0.075     74      0      0     30     95     95      0      0    0.0  0.000     20   0.00   0.00   1.00   0.00   0.00   0.00   0.00   1.00   6.16  380.0   0.00      0     20    296.3   0.00   0.00 0.3432   0.026   0.003   0.000   0.000   0.000   0.000   0.000   0.000   0.000   0.000      0      0      0       0       0   4.300   26.013
 2024 342    47    45  11.318     1  0.076     75      0      0     30     95     95      0      0    0.0  0.000     20   0.00   0.00   1.00   0.00   0.00   0.00   0.00   1.00   6.16  380.0   0.00      0     20    296.3   0.00   0.00 0.3459   0.025   0.003   0.000   0.000   0.000   0.000   0.000   0.000   0.000   0.000      0      0      0       0       0   2.600   26.352
 2024 343    48    46  11.336     1  0.077     75      0      0     31     96     96      0      0    0.0  0.000     21   0.00   0.00   1.00   0.00   0.00   0.00   0.00   1.00   6.15  380.0   0.00      0     21    296.2   0.00   0.00 0.3489   0.025   0.003   0.000   0.000   0.000   0.000   0.000   0.000   0.000   0.000      0      0      0       0       0   2.907   26.723
 2024 344    49    47  11.349     1  0.078     75      0      0     31     97     97      0      0    0.0  0.000     21   0.00   0.00   1.00   0.00   0.00   0.00   0.00   1.00   6.16  380.0   0.00      0     21    296.2   0.00   0.00 0.3510   0.025   0.003   0.000   0.000   0.000   0.000   0.000   0.000   0.000   0.000      0      0      0       0       0   2.009   26.973
 2024 345    50    48  11.358     1  0.078     75      0      0     30     97     97      0      0    0.0  0.000     21   0.00   0.00   1.00   0.00   0.00   0.00   0.00   1.00   6.18  380.0   0.00      0     21    296.2   0.00   0.00 0.3525   0.025   0.003   0.000   0.000   0.000   0.000   0.000   0.000   0.000   0.000      0      0      0       0       0   1.485   27.155
 2024 346    51    49  11.367     1  0.078     76      0      0     30     97     97      0      0    0.0  0.000     21   0.00   0.00   1.00   0.00   0.00   0.00   0.00   1.00   6.18  380.0   0.00      0     21    296.2   0.00   0.00 0.3540   0.024   0.003   0.000   0.000   0.000   0.000   0.000   0.000   0.000   0.000      0      0      0       0       0   1.474   27.332
 2024 347    52    50  11.372     1  0.078     76      0      0     30     97     97      0      0    0.0  0.000     21   0.00   0.00   1.00   0.00   0.00   0.00   0.00   1.00   6.19  380.0   0.00      0     21    296.2   0.00   0.00 0.3551   0.024   0.003   0.000   0.000   0.000   0.000   0.000   0.000   0.000   0.000      0      0      0       0       0   0.970   27.447
 2024 348    53    51  11.375     1  0.078     76      0      0     30     97     97      0      0    0.0  0.000     21   0.00   0.00   1.00   0.00   0.00   0.00   0.00   1.00   6.19  380.0   0.00      0     21    296.1   0.00   0.00 0.3555   0.024   0.003   0.000   0.000   0.000   0.000   0.000   0.000   0.000   0.000      0      0      0       0       0   0.474   27.502
 2024 349    54    52  11.382     1  0.078     76      0      0     29     97     97      0      0    0.0  0.000     21   0.00   0.00   1.00   0.00   0.00   0.00   0.00   1.00   6.19  380.0   0.00      0     21    296.1   0.00   0.00 0.3568   0.024   0.003   0.000   0.000   0.000   0.000   0.000   0.000   0.000   0.000      0      0      0       0       0   1.184   27.638
 2024 350    55    53  11.392     1  0.079     76      0      0     29     98     98      0      0    0.0  0.000     21   0.00   0.00   1.00   0.00   0.00   0.00   0.00   1.00   6.16  380.0   0.00      0     21    296.1   0.00   0.00 0.3586   0.023   0.003   0.000   0.000   0.000   0.000   0.000   0.000   0.000   0.000      0      0      0       0       0   1.767   27.838
 2024 351    56    54  11.415     1  0.081     76      0      0     29     99     99      0      0    0.0  0.000     22   0.00   0.00   1.00   0.00   0.00   0.00   0.00   1.00   6.14  380.0   0.00      0     22    296.0   0.00   0.00 0.3629   0.023   0.003   0.000   0.000   0.000   0.000   0.000   0.000   0.000   0.000      0      0      0       0       0   4.100   28.297
 2024 352    57    55  11.439     1  0.083     77      0      0     30    100    100      0      0    0.0  0.000     23   0.00   0.00   1.00   0.00   0.00   0.00   0.00   1.00   6.12  380.0   0.00      0     23    296.0   0.00   0.00 0.3674   0.023   0.003   0.000   0.000   0.000   0.000   0.000   0.000   0.000   0.000      0      0      0       0       0   4.350   28.780
 2024 353    58    56  11.466     1  0.085     78      0      0     30    102    102      0      0    0.0  0.000     24   0.00   0.00   1.00   0.00   0.00   0.00   0.00   1.00   6.07  380.0   0.00      0     24    295.9   0.00   0.00 0.3725   0.023   0.003   0.000   0.000   0.000   0.000   0.000   0.000   0.000   0.000      0      0      0       0       0   4.900   29.320
 2024 354    59    57  11.501     1  0.088     79      0      0     31    104    104      0      0    0.0  0.000     24   0.00   0.00   1.00   0.00   0.00   0.00   0.00   1.00   6.02  380.0   0.00      0     24    295.8   0.00   0.00 0.3792   0.023   0.003   0.000   0.000   0.000   0.000   0.000   0.000   0.000   0.000      0      0      0       0       0   6.450   30.027
 2024 355    60    58  11.510     1  0.088     79      0      0     31    104    104      0      0    0.0  0.000     25   0.00   0.00   1.00   0.00   0.00   0.00   0.00   1.00   6.03  380.0   0.00      0     25    295.8   0.00   0.00 0.3809   0.022   0.003   0.000   0.000   0.000   0.000   0.000   0.000   0.000   0.000      0      0      0       0       0   1.655   30.208
 2024 356    61    59  11.522     1  0.090     79      0      0     31    105    105      0      0    0.0  0.000     25   0.00   0.00   1.00   0.00   0.00   0.00   0.00   1.00   6.01  380.0   0.00      0     25    295.8   0.00   0.00 0.3832   0.022   0.003   0.000   0.000   0.000   0.000   0.000   0.000   0.000   0.000      0      0      0       0       0   2.175   30.445
 2024 357    62    60  11.541     1  0.091     80      0      0     31    106    106      0      0    0.0  0.000     25   0.00   0.00   1.00   0.00   0.00   0.00   0.00   1.00   6.00  380.0   0.00      0     25    295.7   0.00   0.00 0.3867   0.022   0.003   0.000   0.000   0.000   0.000   0.000   0.000   0.000   0.000      0      0      0       0       0   3.388   30.815
 2024 358    63    61  11.549     1  0.091     80      0      0     31    106    106      0      0    0.0  0.000     26   0.00   0.00   1.00   0.00   0.00   0.00   0.00   1.00   6.00  380.0   0.00      0     26    295.7   0.00   0.00 0.3882   0.022   0.003   0.000   0.000   0.000   0.000   0.000   0.000   0.000   0.000      0      0      0       0       0   1.456   30.975
 2024 359    64    62  11.561     1  0.093     80      0      0     31    107    107      0      0    0.0  0.000     26   0.00   0.00   1.00   0.00   0.00   0.00   0.00   1.00   5.97  380.0   0.00      0     26    295.7   0.00   0.00 0.3905   0.021   0.003   0.000   0.000   0.000   0.000   0.000   0.000   0.000   0.000      0      0      0       0       0   2.199   31.216
 2024 360    65    63  11.571     1  0.094     81      0      0     31    108    108      0      0    0.0  0.000     26   0.00   0.00   1.00   0.00   0.00   0.00   0.00   1.00   5.96  380.0   0.00      0     26    295.6   0.00   0.00 0.3924   0.021   0.003   0.000   0.000   0.000   0.000   0.000   0.000   0.000   0.000      0      0      0       0       0   1.911   31.428
 2024 361    66    64  11.575     1  0.094     81      0      0     31    108    108      0      0    0.0  0.000     26   0.00   0.00   1.00   0.00   0.00   0.00   0.00   1.00   5.97  380.0   0.00      0     26    295.6   0.00   0.00 0.3932   0.021   0.003   0.000   0.000   0.000   0.000   0.000   0.000   0.000   0.000      0      0      0       0       0   0.706   31.507
 2024 362    67    65  11.578     1  0.094     81      0      0     30    108    108      0      0    0.0  0.000     26   0.00   0.00   1.00   0.00   0.00   0.00   0.00   1.00   5.98  380.0   0.00      0     26    295.6   0.00   0.00 0.3937   0.021   0.003   0.000   0.000   0.000   0.000   0.000   0.000   0.000   0.000      0      0      0       0       0   0.495   31.563
 2024 363    68    66  11.582     1  0.094     81      0      0     30    108    108      0      0    0.0  0.000     26   0.00   0.00   1.00   0.00   0.00   0.00   0.00   1.00   6.00  380.0   0.00      0     26    295.6   0.00   0.00 0.3945   0.021   0.003   0.000   0.000   0.000   0.000   0.000   0.000   0.000   0.000      0      0      0       0       0   0.731   31.646
 2024 364    69    67  11.584     1  0.094     81      0      0     30    108    108      0      0    0.0  0.000     26   0.00   0.00   1.00   0.00   0.00   0.00   0.00   1.00   6.01  380.0   0.00      0     26    295.6   0.00   0.00 0.3948   0.020   0.003   0.000   0.000   0.000   0.000   0.000   0.000   0.000   0.000      0      0      0       0       0   0.319   31.683
 2024 365    70    68  11.586     1  0.094     81      0      0     30    108    108      0      0    0.0  0.000     26   0.00   0.00   1.00   0.00   0.00   0.00   0.00   1.00   6.02  380.0   0.00      0     26    295.6   0.00   0.00 0.3951   0.020   0.003   0.000   0.000   0.000   0.000   0.000   0.000   0.000   0.000      0      0      0       0       0   0.313   31.720
 2024 366    71    69  11.588     1  0.094     81      0      0     29    108    108      0      0    0.0  0.000     26   0.00   0.00   1.00   0.00   0.00   0.00   0.00   1.00   6.03  380.0   0.00      0     26    295.6   0.00   0.00 0.3954   0.020   0.003   0.000   0.000   0.000   0.000   0.000   0.000   0.000   0.000      0      0      0       0       0   0.319   31.758
 2025 001    72    70  11.590     1  0.094     81      0      0     29    108    108      0      0    0.0  0.000     26   0.00   0.00   1.00   0.00   0.00   0.00   0.00   1.00   6.04  380.0   0.00      0     26    295.6   0.00   0.00 0.3958   0.020   0.003   0.000   0.000   0.000   0.000   0.000   0.000   0.000   0.000      0      0      0       0       0   0.319   31.796
