*Soil Inorganic Nitrogen daily output file

*DSSAT Cropping System Model Ver. 4.8.2.000 -release  JAN 19, 2026 13:40:14

*RUN   1        : No N                      WHAPS048 HWOC2501    1
 MODEL          : WHAPS048 - Wheat
 EXPERIMENT     : HWOC2501 WH
 DATA PATH      : C:/DSSAT48/Wheat/
 TREATMENT  1   : No N                      WHAPS048
  
!                                                                                                                                      NO3 (ppm) at soil dep. (cm):                                                    NH4 (ppm) at soil dep. (cm):                                                    Total Inorganic N @dep(ppm):
!                                                                                                                                       0-5    5-10   10-20   20-30   30-40   40-50   50-60   60-70   70-90  90-210     0-5    5-10   10-20   20-30   30-40   40-50   50-60   60-70   70-90  90-210     0-5    5-10   10-20   20-30   30-40   40-50   50-60   60-70   70-90  90-210
@YEAR DOY   DAS  NAPC  NI#M    NIAD    NITD    NHTD   NURTD    NMNC    NITC    NDNC    NIMC    AMLC   NNMNC    NUCM    NLCC    TDNC    NI1D    NI2D    NI3D    NI4D    NI5D    NI6D    NI7D    NI8D    NI9D    NI10    NH1D    NH2D    NH3D    NH4D    NH5D    NH6D    NH7D    NH8D    NH9D    NH10    NT1D    NT2D    NT3D    NT4D    NT5D    NT6D    NT7D    NT8D    NT9D    NT10    
 2024 295     0     0     0    50.2    45.1     5.1     0.0    0.00    0.00    0.00    0.00    0.00    0.00    0.00    0.00    0.00    1.33     1.3     1.3    1.33    1.33    1.33    1.33    1.33    1.33    1.33    0.15    0.15    0.15    0.15    0.15    0.15    0.15    0.15    0.15    0.15    1.48    1.48    1.48    1.48    1.48    1.48    1.48    1.48    1.48    1.48
 2024 296     1     0     0    51.0    46.0     5.0     0.0    0.75    0.84    0.00    0.00    0.00    0.75    0.00    0.00    0.00    1.29     1.4     1.4    1.35    1.35    1.35    1.35    1.35    1.35    1.35    0.44    0.45    0.20    0.13    0.13    0.13    0.13    0.13    0.13    0.13    1.73    1.83    1.57    1.49    1.49    1.49    1.49    1.49    1.49    1.48
 2024 297     2     0     0    51.7    46.8     4.9     0.0    1.49    1.65    0.00    0.00    0.00    1.49    0.00    0.00    0.00    1.39     1.5     1.4    1.39    1.37    1.37    1.37    1.37    1.37    1.37    0.68    0.68    0.24    0.12    0.12    0.12    0.12    0.12    0.12    0.11    2.07    2.14    1.64    1.51    1.49    1.50    1.50    1.49    1.49    1.49
 2024 298     3     0     0    52.4    47.5     4.8     0.0    2.15    2.42    0.00    0.00    0.00    2.15    0.00    0.00    0.00    1.58     1.5     1.4    1.40    1.40    1.39    1.39    1.39    1.39    1.39    0.85    0.85    0.26    0.11    0.11    0.11    0.11    0.11    0.10    0.10    2.43    2.40    1.70    1.51    1.51    1.50    1.50    1.50    1.50    1.49
 2024 299     4     0     0    53.0    48.3     4.7     0.0    2.77    3.15    0.00    0.00    0.00    2.77    0.00    0.00    0.00    1.78     1.7     1.5    1.41    1.41    1.40    1.40    1.40    1.40    1.40    0.97    0.98    0.28    0.11    0.10    0.10    0.11    0.10    0.10    0.09    2.75    2.63    1.76    1.52    1.51    1.51    1.51    1.50    1.50    1.50
 2024 300     5     0     0    53.6    49.0     4.6     0.0    3.35    3.84    0.00    0.00    0.00    3.35    0.00    0.00    0.00    2.04     1.8     1.5    1.42    1.42    1.42    1.41    1.41    1.42    1.42    1.06    1.07    0.30    0.10    0.10    0.10    0.10    0.09    0.09    0.08    3.11    2.84    1.80    1.52    1.52    1.51    1.51    1.50    1.50    1.50
 2024 301     6     0     0    54.1    49.6     4.5     0.0    3.89    4.49    0.00    0.00    0.00    3.89    0.00    0.00    0.00    2.33     1.9     1.5    1.43    1.43    1.43    1.42    1.42    1.43    1.43    1.13    1.13    0.31    0.10    0.09    0.09    0.09    0.09    0.08    0.07    3.46    3.02    1.84    1.52    1.52    1.52    1.51    1.51    1.51    1.50
 2024 302     7     0     0    54.6    50.2     4.4     0.0    4.40    5.11    0.00    0.00    0.00    4.40    0.00    0.00    0.00    2.58     2.0     1.6    1.44    1.44    1.44    1.43    1.43    1.44    1.44    1.17    1.18    0.31    0.09    0.09    0.09    0.09    0.08    0.08    0.07    3.75    3.19    1.88    1.53    1.53    1.52    1.52    1.51    1.51    1.50
 2024 303     8     0     0    55.0    50.7     4.2     0.0    4.94    5.73    0.00    0.00    0.00    4.94    0.17    0.00    0.00    2.65     2.1     1.6    1.45    1.45    1.45    1.44    1.44    1.45    1.45    1.15    1.21    0.32    0.09    0.08    0.08    0.09    0.08    0.07    0.06    3.81    3.34    1.93    1.54    1.54    1.53    1.53    1.52    1.52    1.51
 2024 304     9     0     0    55.2    51.1     4.1     0.0    5.50    6.34    0.00    0.00    0.00    5.50    0.50    0.00    0.00    2.61     2.2     1.7    1.46    1.46    1.46    1.46    1.45    1.46    1.46    1.09    1.22    0.32    0.09    0.08    0.08    0.08    0.08    0.07    0.06    3.70    3.45    1.98    1.55    1.54    1.54    1.54    1.53    1.53    1.52
 2024 305    10     0     0    55.2    51.3     3.9     0.0    6.04    6.92    0.00    0.00    0.00    6.04    1.03    0.00    0.00    2.42     2.3     1.7    1.47    1.47    1.47    1.47    1.46    1.47    1.46    0.98    1.21    0.33    0.08    0.08    0.08    0.08    0.07    0.07    0.06    3.40    3.49    2.03    1.56    1.55    1.55    1.55    1.54    1.53    1.52
 2024 306    11     0     0    55.2    51.5     3.7     0.0    6.56    7.46    0.00    0.00    0.00    6.56    1.61    0.00    0.00    2.19     2.3     1.7    1.48    1.49    1.48    1.48    1.47    1.48    1.47    0.87    1.18    0.33    0.08    0.08    0.08    0.08    0.07    0.06    0.05    3.06    3.48    2.07    1.57    1.56    1.56    1.56    1.54    1.54    1.53
 2024 307    12     0     0    55.0    51.5     3.5     0.0    7.02    7.95    0.00    0.00    0.00    7.01    2.19    0.00    0.00    1.95     2.3     1.8    1.49    1.50    1.49    1.49    1.48    1.49    1.48    0.76    1.13    0.33    0.08    0.08    0.08    0.08    0.07    0.06    0.05    2.71    3.42    2.11    1.57    1.57    1.57    1.57    1.55    1.55    1.53
 2024 308    13     0     0    55.0    51.7     3.3     0.0    7.39    8.38    0.00    0.00    0.00    7.39    2.56    0.00    0.00    1.85     2.3     1.8    1.50    1.50    1.50    1.50    1.49    1.50    1.49    0.69    1.08    0.33    0.08    0.08    0.08    0.08    0.07    0.06    0.05    2.55    3.37    2.15    1.58    1.58    1.58    1.58    1.56    1.55    1.54
 2024 309    14     0     0    54.9    51.8     3.1     0.0    7.67    8.75    0.00    0.00    0.00    7.67    2.98    0.00    0.00    1.73     2.2     1.9    1.51    1.51    1.51    1.51    1.50    1.50    1.49    0.61    1.00    0.32    0.08    0.07    0.07    0.07    0.07    0.06    0.05    2.34    3.25    2.17    1.59    1.59    1.59    1.58    1.57    1.56    1.54
 2024 310    15     0     0    54.8    51.9     2.9     0.0    7.87    9.07    0.00    0.00    0.00    7.87    3.30    0.00    0.00    1.66     2.2     1.9    1.52    1.52    1.52    1.52    1.51    1.51    1.50    0.55    0.91    0.30    0.08    0.07    0.07    0.07    0.06    0.05    0.04    2.21    3.11    2.18    1.59    1.59    1.59    1.59    1.57    1.56    1.54
 2024 311    16     0     0    54.8    52.1     2.7     0.0    7.98    9.35    0.00    0.00    0.00    7.98    3.35    0.00    0.00    1.71     2.2     1.9    1.52    1.53    1.53    1.52    1.51    1.51    1.50    0.51    0.85    0.28    0.07    0.07    0.07    0.07    0.06    0.05    0.04    2.22    3.09    2.19    1.59    1.59    1.59    1.59    1.57    1.57    1.55
 2024 312    17     0     0    54.9    52.4     2.6     0.0    8.10    9.61    0.00    0.00    0.00    8.10    3.37    0.00    0.00    1.76     2.3     1.9    1.53    1.53    1.53    1.53    1.52    1.52    1.51    0.49    0.80    0.27    0.07    0.06    0.06    0.06    0.06    0.05    0.04    2.25    3.10    2.19    1.60    1.60    1.60    1.60    1.58    1.57    1.55
 2024 313    18     0     0    55.0    52.6     2.4     0.0    8.19    9.85    0.00    0.00    0.00    8.19    3.39    0.00    0.00    1.82     2.3     1.9    1.53    1.54    1.54    1.54    1.52    1.53    1.51    0.46    0.75    0.25    0.06    0.06    0.06    0.06    0.06    0.05    0.04    2.28    3.09    2.20    1.60    1.60    1.60    1.60    1.58    1.57    1.55
 2024 314    19     0     0    55.0    52.8     2.2     0.0    8.26   10.07    0.00    0.00    0.00    8.25    3.42    0.00    0.00    1.87     2.4     2.0    1.54    1.54    1.54    1.54    1.53    1.53    1.52    0.43    0.69    0.23    0.06    0.06    0.06    0.06    0.05    0.04    0.04    2.30    3.07    2.20    1.60    1.60    1.60    1.60    1.58    1.57    1.55
 2024 315    20     0     0    55.1    53.0     2.1     0.0    8.30   10.26    0.00    0.00    0.00    8.29    3.44    0.00    0.00    1.93     2.4     2.0    1.54    1.55    1.55    1.55    1.53    1.53    1.52    0.40    0.63    0.21    0.05    0.05    0.05    0.06    0.05    0.04    0.03    2.33    3.04    2.19    1.60    1.60    1.60    1.60    1.58    1.58    1.56
 2024 316    21     0     0    55.1    53.1     1.9     0.0    8.34   10.45    0.00    0.00    0.00    8.34    3.48    0.00    0.00    1.96     2.4     2.0    1.55    1.55    1.55    1.55    1.54    1.54    1.52    0.37    0.57    0.20    0.05    0.05    0.05    0.05    0.05    0.04    0.03    2.33    2.99    2.19    1.60    1.60    1.60    1.61    1.59    1.58    1.56
 2024 317    22     0     0    55.0    53.2     1.8     0.0    8.36   10.61    0.00    0.00    0.00    8.36    3.53    0.00    0.00    1.87     2.5     2.0    1.55    1.56    1.56    1.56    1.54    1.54    1.53    0.33    0.53    0.18    0.05    0.05    0.05    0.05    0.04    0.04    0.03    2.20    3.07    2.19    1.60    1.60    1.60    1.61    1.59    1.58    1.56
 2024 318    23     0     0    55.0    53.4     1.7     0.0    8.38   10.75    0.00    0.00    0.00    8.38    3.55    0.00    0.00    1.85     2.6     2.0    1.55    1.56    1.56    1.56    1.54    1.54    1.53    0.30    0.49    0.17    0.04    0.04    0.04    0.04    0.04    0.04    0.03    2.16    3.12    2.20    1.59    1.60    1.60    1.60    1.58    1.58    1.56
 2024 319    24     0     0    55.0    53.4     1.5     0.0    8.39   10.88    0.00    0.00    0.00    8.38    3.60    0.00    0.00    1.75     2.6     2.1    1.55    1.56    1.56    1.56    1.55    1.55    1.53    0.28    0.45    0.16    0.04    0.04    0.04    0.04    0.04    0.03    0.03    2.03    3.09    2.25    1.59    1.60    1.60    1.60    1.58    1.58    1.56
 2024 320    25     0     0    55.0    53.5     1.4     0.0    8.39   10.99    0.00    0.00    0.00    8.39    3.62    0.00    0.00    1.74     2.6     2.1    1.58    1.56    1.56    1.56    1.55    1.55    1.53    0.26    0.42    0.15    0.04    0.04    0.04    0.04    0.03    0.03    0.03    1.99    3.02    2.28    1.61    1.60    1.60    1.60    1.58    1.58    1.56
 2024 321    26     0     0    54.9    53.6     1.3     0.0    8.40   11.10    0.00    0.00    0.00    8.40    3.66    0.00    0.00    1.77     2.6     2.1    1.61    1.56    1.57    1.56    1.55    1.55    1.53    0.24    0.39    0.14    0.03    0.03    0.03    0.03    0.03    0.03    0.02    2.01    2.95    2.28    1.64    1.59    1.60    1.60    1.58    1.58    1.56
 2024 322    27     0     0    54.9    53.7     1.2     0.0    8.40   11.20    0.00    0.00    0.00    8.40    3.71    0.00    0.00    1.74     2.5     2.2    1.63    1.58    1.57    1.56    1.55    1.55    1.53    0.21    0.36    0.13    0.03    0.03    0.03    0.03    0.03    0.03    0.02    1.95    2.89    2.30    1.66    1.61    1.60    1.59    1.58    1.58    1.56
 2024 323    28     0     0    54.8    53.7     1.1     0.0    8.41   11.29    0.00    0.00    0.00    8.41    3.79    0.00    0.00    1.30     2.4     2.3    1.72    1.62    1.59    1.56    1.55    1.55    1.54    0.19    0.33    0.12    0.03    0.03    0.03    0.03    0.03    0.02    0.02    1.49    2.75    2.40    1.75    1.65    1.62    1.59    1.57    1.57    1.56
 2024 324    29     0     0    54.8    53.7     1.0     0.0    8.42   11.38    0.00    0.00    0.00    8.42    3.82    0.00    0.00    0.90     2.0     2.3    1.89    1.72    1.65    1.60    1.55    1.55    1.54    0.18    0.31    0.11    0.03    0.03    0.03    0.03    0.02    0.02    0.02    1.09    2.33    2.45    1.92    1.74    1.67    1.63    1.57    1.57    1.56
 2024 325    30     0     0    54.8    53.8     1.0     0.0    8.44   11.45    0.00    0.00    0.00    8.44    3.85    0.00    0.00    0.73     1.7     2.2    2.00    1.82    1.72    1.65    1.59    1.56    1.54    0.17    0.29    0.10    0.03    0.02    0.02    0.03    0.02    0.02    0.02    0.90    1.99    2.33    2.03    1.85    1.74    1.68    1.61    1.58    1.56
 2024 326    31     0     0    54.7    53.8     0.9     0.0    8.46   11.53    0.00    0.00    0.00    8.46    3.91    0.00    0.00    0.63     1.4     2.1    2.03    1.91    1.79    1.71    1.64    1.59    1.54    0.15    0.27    0.09    0.02    0.02    0.02    0.02    0.02    0.02    0.02    0.79    1.72    2.16    2.06    1.93    1.81    1.73    1.66    1.61    1.56
 2024 327    32     0     0    54.7    53.8     0.9     0.0    8.47   11.59    0.00    0.00    0.00    8.47    3.96    0.00    0.00    0.54     1.3     1.9    2.01    1.95    1.85    1.76    1.70    1.61    1.56    0.14    0.25    0.09    0.02    0.02    0.02    0.02    0.02    0.02    0.02    0.67    1.51    2.01    2.04    1.97    1.87    1.78    1.72    1.63    1.58
 2024 328    33     0     0    54.7    53.9     0.8     0.0    8.48   11.66    0.00    0.00    0.00    8.47    3.96    0.00    0.00    0.51     1.1     1.8    1.97    1.96    1.88    1.80    1.75    1.64    1.58    0.13    0.24    0.08    0.02    0.02    0.02    0.02    0.02    0.02    0.02    0.64    1.38    1.88    1.99    1.98    1.90    1.82    1.76    1.66    1.60
 2024 329    34     0     0    53.9    53.2     0.7     0.0    8.48   11.71    0.00    0.00    0.00    8.48    3.96    0.80    0.00    0.52     1.1     1.7    1.82    1.85    1.80    1.72    1.71    1.65    1.59    0.12    0.22    0.07    0.02    0.02    0.02    0.02    0.02    0.02    0.02    0.64    1.27    1.73    1.84    1.87    1.82    1.74    1.73    1.67    1.61
 2024 330    35     0     0    53.9    53.2     0.7     0.0    8.48   11.76    0.00    0.00    0.00    8.48    4.00    0.80    0.00    0.52     1.0     1.6    1.79    1.84    1.80    1.73    1.73    1.67    1.60    0.11    0.21    0.07    0.02    0.02    0.02    0.02    0.02    0.01    0.01    0.63    1.23    1.68    1.80    1.86    1.82    1.75    1.74    1.68    1.61
 2024 331    36     0     0    53.8    53.2     0.6     0.0    8.49   11.81    0.00    0.00    0.00    8.48    4.09    0.80    0.00    0.43     1.0     1.6    1.77    1.84    1.80    1.74    1.74    1.68    1.61    0.09    0.19    0.07    0.02    0.02    0.02    0.02    0.01    0.01    0.01    0.52    1.18    1.65    1.79    1.85    1.82    1.75    1.75    1.69    1.62
 2024 332    37     0     0    53.7    53.1     0.6     0.0    8.50   11.86    0.00    0.00    0.00    8.50    4.22    0.80    0.00    0.36     0.9     1.5    1.76    1.84    1.80    1.74    1.75    1.69    1.62    0.07    0.16    0.06    0.02    0.01    0.01    0.01    0.01    0.01    0.01    0.43    1.06    1.60    1.77    1.85    1.82    1.76    1.76    1.70    1.63
 2024 333    38     0     0    53.6    53.1     0.6     0.0    8.54   11.91    0.00    0.00    0.00    8.54    4.30    0.80    0.00    0.29     0.8     1.5    1.75    1.85    1.81    1.75    1.75    1.69    1.62    0.05    0.15    0.06    0.01    0.01    0.01    0.02    0.01    0.01    0.01    0.35    0.97    1.55    1.77    1.86    1.82    1.76    1.77    1.71    1.64
 2024 334    39     0     0    53.6    53.0     0.6     0.0    8.63   11.96    0.00    0.00    0.00    8.63    4.42    0.84    0.00    0.24     0.7     1.4    1.74    1.85    1.82    1.75    1.76    1.70    1.63    0.06    0.14    0.06    0.02    0.02    0.02    0.02    0.02    0.02    0.01    0.30    0.87    1.49    1.75    1.87    1.84    1.77    1.78    1.72    1.64
 2024 335    40     0     0    52.8    52.2     0.6     0.0    8.67   12.01    0.00    0.00    0.00    8.66    4.51    1.58    0.00    0.20     0.6     1.3    1.63    1.78    1.78    1.72    1.74    1.71    1.63    0.04    0.13    0.05    0.01    0.01    0.02    0.02    0.02    0.02    0.02    0.25    0.76    1.36    1.64    1.80    1.79    1.73    1.75    1.72    1.64
 2024 336    41     0     0    52.7    52.2     0.5     0.0    8.68   12.05    0.00    0.00    0.00    8.68    4.57    1.62    0.00    0.20     0.6     1.3    1.61    1.78    1.78    1.72    1.74    1.71    1.63    0.03    0.11    0.05    0.01    0.01    0.01    0.02    0.02    0.02    0.02    0.24    0.75    1.33    1.63    1.79    1.79    1.73    1.75    1.72    1.64
 2024 337    42     0     0    52.6    52.1     0.5     0.0    8.69   12.09    0.00    0.00    0.00    8.69    4.65    1.65    0.00    0.14     0.6     1.3    1.61    1.78    1.79    1.72    1.74    1.71    1.63    0.03    0.10    0.05    0.01    0.01    0.01    0.01    0.01    0.01    0.01    0.17    0.67    1.30    1.62    1.80    1.80    1.74    1.76    1.73    1.65
 2024 338    43     0     0    52.5    52.1     0.4     0.0    8.69   12.12    0.01    0.00    0.00    8.69    4.65    1.69    0.00    0.13     0.5     1.2    1.60    1.80    1.80    1.73    1.75    1.72    1.64    0.02    0.09    0.04    0.01    0.01    0.01    0.01    0.01    0.01    0.01    0.15    0.61    1.25    1.62    1.81    1.81    1.75    1.76    1.73    1.65
 2024 339    44     0     0    52.5    52.0     0.4     0.0    8.69   12.15    0.01    0.00    0.00    8.69    4.69    1.72    0.00    0.12     0.5     1.2    1.58    1.81    1.82    1.75    1.76    1.73    1.64    0.02    0.09    0.04    0.01    0.01    0.01    0.01    0.01    0.01    0.01    0.14    0.55    1.19    1.59    1.82    1.83    1.76    1.77    1.74    1.65
 2024 340    45     0     0    52.4    52.0     0.4     0.0    8.69   12.18    0.01    0.00    0.00    8.69    4.74    1.76    0.00    0.09     0.4     1.1    1.55    1.80    1.83    1.76    1.78    1.73    1.65    0.02    0.08    0.04    0.01    0.01    0.01    0.01    0.01    0.01    0.01    0.11    0.49    1.13    1.56    1.81    1.84    1.78    1.79    1.75    1.66
 2024 341    46     0     0    52.3    51.9     0.4     0.0    8.69   12.20    0.01    0.00    0.00    8.69    4.77    1.80    0.00    0.07     0.4     1.0    1.52    1.81    1.85    1.78    1.79    1.74    1.65    0.01    0.07    0.04    0.01    0.01    0.01    0.01    0.01    0.01    0.01    0.08    0.42    1.06    1.53    1.82    1.86    1.79    1.80    1.75    1.66
 2024 342    47     0     0    52.3    51.9     0.3     0.0    8.70   12.22    0.01    0.00    0.00    8.69    4.77    1.85    0.00    0.06     0.3     0.9    1.48    1.81    1.87    1.81    1.81    1.76    1.66    0.01    0.07    0.03    0.01    0.01    0.01    0.01    0.01    0.01    0.01    0.07    0.37    0.98    1.49    1.82    1.88    1.82    1.82    1.77    1.67
 2024 343    48     0     0    52.2    51.9     0.3     0.0    8.70   12.25    0.01    0.00    0.00    8.70    4.80    1.90    0.00    0.05     0.3     0.9    1.41    1.79    1.89    1.83    1.84    1.77    1.67    0.01    0.06    0.03    0.01    0.01    0.01    0.01    0.01    0.01    0.01    0.06    0.32    0.89    1.42    1.80    1.90    1.84    1.85    1.78    1.68
 2024 344    49     0     0    52.1    51.8     0.3     0.0    8.70   12.27    0.01    0.00    0.00    8.70    4.83    1.96    0.00    0.04     0.2     0.8    1.34    1.76    1.90    1.86    1.87    1.79    1.68    0.01    0.06    0.03    0.01    0.01    0.01    0.01    0.01    0.01    0.01    0.05    0.28    0.82    1.35    1.77    1.90    1.86    1.87    1.80    1.69
 2024 345    50     0     0    52.0    51.7     0.3     0.0    8.71   12.29    0.01    0.00    0.00    8.70    4.88    2.03    0.00    0.03     0.2     0.7    1.27    1.72    1.89    1.87    1.89    1.80    1.69    0.01    0.05    0.03    0.01    0.01    0.01    0.01    0.01    0.01    0.01    0.03    0.24    0.76    1.28    1.72    1.89    1.88    1.90    1.81    1.70
 2024 346    51     0     0    51.9    51.6     0.2     0.0    8.71   12.31    0.01    0.00    0.00    8.71    4.91    2.11    0.00    0.02     0.2     0.7    1.21    1.67    1.87    1.87    1.90    1.82    1.70    0.00    0.04    0.02    0.01    0.01    0.01    0.01    0.01    0.01    0.01    0.03    0.22    0.71    1.22    1.67    1.87    1.88    1.91    1.83    1.71
 2024 347    52     0     0    50.8    50.6     0.2     0.0    8.71   12.32    0.01    0.00    0.00    8.71    4.92    3.15    0.00    0.02     0.2     0.6    1.12    1.55    1.76    1.78    1.84    1.81    1.70    0.00    0.04    0.02    0.01    0.01    0.01    0.01    0.01    0.01    0.01    0.02    0.21    0.67    1.13    1.56    1.76    1.79    1.84    1.82    1.71
 2024 348    53     0     0    50.3    50.1     0.2     0.0    8.71   12.34    0.01    0.00    0.00    8.71    4.92    3.63    0.00    0.02     0.2     0.6    1.08    1.49    1.70    1.73    1.80    1.80    1.70    0.00    0.04    0.02    0.01    0.01    0.01    0.01    0.01    0.01    0.01    0.03    0.20    0.65    1.09    1.50    1.71    1.74    1.81    1.81    1.70
 2024 349    54     0     0    50.3    50.1     0.2     0.0    8.71   12.35    0.01    0.00    0.00    8.71    4.92    3.67    0.00    0.02     0.2     0.6    1.07    1.48    1.69    1.73    1.80    1.81    1.70    0.00    0.03    0.02    0.01    0.01    0.01    0.01    0.01    0.01    0.01    0.03    0.20    0.64    1.08    1.49    1.70    1.74    1.81    1.81    1.71
 2024 350    55     0     0    50.3    50.1     0.2     0.0    8.71   12.36    0.02    0.00    0.00    8.71    4.92    3.70    0.00    0.02     0.2     0.6    1.06    1.47    1.68    1.73    1.80    1.81    1.70    0.00    0.03    0.02    0.01    0.01    0.01    0.01    0.01    0.01    0.01    0.03    0.21    0.64    1.07    1.48    1.69    1.73    1.81    1.81    1.71
 2024 351    56     0     0    50.2    50.0     0.2     0.0    8.71   12.38    0.02    0.00    0.00    8.71    4.92    3.74    0.00    0.03     0.2     0.6    1.06    1.47    1.68    1.72    1.80    1.81    1.70    0.00    0.03    0.02    0.00    0.00    0.01    0.01    0.01    0.01    0.01    0.03    0.20    0.63    1.06    1.47    1.68    1.73    1.81    1.82    1.71
 2024 352    57     0     0    50.2    50.0     0.2     0.0    8.71   12.39    0.02    0.00    0.00    8.71    4.93    3.77    0.00    0.03     0.2     0.6    1.05    1.46    1.67    1.72    1.80    1.81    1.70    0.00    0.03    0.02    0.00    0.00    0.00    0.01    0.00    0.01    0.01    0.03    0.20    0.63    1.06    1.47    1.68    1.72    1.80    1.82    1.71
 2024 353    58     0     0    50.1    49.9     0.2     0.0    8.71   12.40    0.02    0.00    0.00    8.71    4.98    3.86    0.00    0.02     0.2     0.6    1.04    1.44    1.66    1.70    1.78    1.81    1.71    0.00    0.02    0.02    0.00    0.00    0.00    0.00    0.00    0.00    0.00    0.02    0.19    0.62    1.05    1.45    1.66    1.71    1.79    1.82    1.71
 2024 354    59     0     0    50.0    49.8     0.1     0.0    8.72   12.41    0.02    0.00    0.00    8.72    5.02    3.89    0.00    0.01     0.1     0.6    1.04    1.45    1.66    1.70    1.78    1.81    1.70    0.00    0.02    0.01    0.00    0.00    0.00    0.00    0.00    0.00    0.00    0.01    0.17    0.61    1.04    1.45    1.66    1.71    1.78    1.81    1.71
 2024 355    60     0     0    50.0    49.8     0.1     0.0    8.73   12.42    0.02    0.00    0.00    8.73    5.06    3.89    0.00    0.01     0.1     0.6    1.03    1.45    1.66    1.71    1.78    1.82    1.70    0.00    0.02    0.01    0.00    0.00    0.00    0.00    0.00    0.00    0.01    0.01    0.15    0.59    1.03    1.45    1.67    1.71    1.79    1.82    1.71
 2024 356    61     0     0    49.9    49.8     0.1     0.0    8.74   12.43    0.02    0.00    0.00    8.74    5.09    3.92    0.00    0.01     0.1     0.5    1.01    1.44    1.67    1.71    1.79    1.82    1.71    0.00    0.01    0.01    0.00    0.00    0.00    0.00    0.00    0.01    0.01    0.01    0.13    0.56    1.01    1.45    1.67    1.72    1.79    1.82    1.71
 2024 357    62     0     0    49.9    49.7     0.1     0.0    8.75   12.45    0.02    0.00    0.00    8.75    5.12    3.95    0.00    0.01     0.1     0.5    0.99    1.44    1.68    1.73    1.80    1.82    1.71    0.00    0.01    0.01    0.00    0.00    0.00    0.00    0.00    0.00    0.01    0.01    0.11    0.52    0.99    1.44    1.68    1.73    1.80    1.82    1.71
 2024 358    63     0     0    49.8    49.7     0.1     0.0    8.76   12.46    0.02    0.00    0.00    8.75    5.14    3.98    0.00    0.01     0.1     0.5    0.95    1.43    1.69    1.74    1.82    1.82    1.71    0.00    0.01    0.01    0.00    0.00    0.00    0.00    0.00    0.00    0.01    0.01    0.09    0.48    0.95    1.43    1.69    1.75    1.82    1.83    1.72
 2024 359    64     0     0    49.8    49.6     0.1     0.0    8.76   12.47    0.02    0.00    0.00    8.76    5.17    4.01    0.00    0.00     0.1     0.4    0.90    1.40    1.69    1.76    1.84    1.83    1.72    0.00    0.01    0.01    0.00    0.00    0.00    0.00    0.00    0.00    0.00    0.01    0.08    0.44    0.91    1.40    1.70    1.76    1.84    1.84    1.72
 2024 360    65     0     0    49.1    49.0     0.1     0.0    8.76   12.47    0.02    0.00    0.00    8.76    5.19    4.62    0.00    0.00     0.1     0.4    0.80    1.27    1.58    1.69    1.80    1.84    1.74    0.00    0.01    0.01    0.00    0.00    0.00    0.00    0.00    0.00    0.00    0.00    0.07    0.39    0.81    1.28    1.58    1.69    1.80    1.84    1.74
 2024 361    66     0     0    48.8    48.7     0.1     0.0    8.76   12.48    0.02    0.00    0.00    8.76    5.21    4.90    0.00    0.00     0.1     0.4    0.76    1.21    1.53    1.65    1.78    1.85    1.74    0.00    0.01    0.01    0.00    0.00    0.00    0.00    0.00    0.00    0.00    0.00    0.07    0.37    0.76    1.21    1.53    1.65    1.78    1.85    1.75
 2024 362    67     0     0    48.7    48.6     0.1     0.0    8.76   12.49    0.02    0.00    0.00    8.76    5.24    5.01    0.00    0.00     0.1     0.3    0.74    1.18    1.50    1.64    1.78    1.85    1.75    0.00    0.01    0.01    0.00    0.00    0.00    0.00    0.00    0.00    0.00    0.00    0.07    0.36    0.74    1.18    1.50    1.64    1.78    1.85    1.75
 2024 363    68     0     0    48.7    48.6     0.1     0.0    8.76   12.50    0.02    0.00    0.00    8.76    5.26    5.02    0.00    0.00     0.1     0.3    0.73    1.18    1.50    1.64    1.77    1.85    1.75    0.00    0.01    0.01    0.00    0.00    0.00    0.00    0.00    0.00    0.00    0.00    0.07    0.35    0.73    1.18    1.50    1.64    1.78    1.85    1.75
 2024 364    69     0     0    48.6    48.5     0.1     0.0    8.76   12.50    0.02    0.00    0.00    8.76    5.28    5.02    0.00    0.00     0.1     0.3    0.73    1.17    1.50    1.64    1.77    1.86    1.75    0.00    0.00    0.01    0.00    0.00    0.00    0.00    0.00    0.00    0.00    0.00    0.06    0.35    0.73    1.17    1.50    1.64    1.78    1.86    1.75
 2024 365    70     0     0    48.6    48.5     0.1     0.0    8.76   12.51    0.02    0.00    0.00    8.76    5.30    5.02    0.00    0.00     0.1     0.3    0.72    1.17    1.50    1.64    1.77    1.86    1.75    0.00    0.00    0.01    0.00    0.00    0.00    0.00    0.00    0.00    0.00    0.00    0.06    0.35    0.72    1.17    1.50    1.64    1.78    1.86    1.75
 2024 366    71     0     0    48.6    48.5     0.1     0.0    8.76   12.51    0.02    0.00    0.00    8.76    5.33    5.02    0.00    0.00     0.1     0.3    0.72    1.17    1.50    1.64    1.77    1.86    1.75    0.00    0.00    0.01    0.00    0.00    0.00    0.00    0.00    0.00    0.00    0.00    0.06    0.35    0.72    1.17    1.50    1.64    1.77    1.86    1.75
 2025 001    72     0     0    48.6    48.5     0.1     0.0    8.76   12.52    0.02    0.00    0.00    8.76    5.35    5.02    0.00    0.00     0.1     0.3    0.72    1.17    1.50    1.64    1.77    1.86    1.75    0.00    0.00    0.01    0.00    0.00    0.00    0.00    0.00    0.00    0.00    0.00    0.05    0.34    0.72    1.17    1.50    1.64    1.77    1.86    1.75
 2025 002    73     0     0    48.5    48.5     0.1     0.0    8.76   12.52    0.02    0.00    0.00    8.76    5.37    5.02    0.00    0.00     0.0     0.3    0.71    1.17    1.50    1.64    1.77    1.86    1.75    0.00    0.00    0.01    0.00    0.00    0.00    0.00    0.00    0.00    0.00    0.00    0.05    0.33    0.71    1.17    1.50    1.64    1.77    1.86    1.75
 2025 003    74     0     0    48.1    48.0     0.1     0.0    8.76   12.52    0.02    0.00    0.00    8.76    5.38    5.49    0.00    0.00     0.0     0.3    0.62    1.06    1.42    1.59    1.76    1.87    1.76    0.00    0.00    0.01    0.00    0.00    0.00    0.00    0.00    0.00    0.00    0.00    0.04    0.27    0.62    1.06    1.42    1.60    1.76    1.87    1.76
 2025 004    75     0     0    47.8    47.8     0.1     0.0    8.76   12.53    0.02    0.00    0.00    8.76    5.40    5.71    0.00    0.00     0.0     0.2    0.57    1.01    1.38    1.57    1.75    1.88    1.77    0.00    0.00    0.00    0.00    0.00    0.00    0.00    0.00    0.00    0.00    0.00    0.03    0.25    0.57    1.01    1.38    1.57    1.75    1.88    1.77
 2025 005    76     0     0    47.8    47.7     0.1     0.0    8.76   12.53    0.02    0.00    0.00    8.76    5.42    5.71    0.00    0.00     0.0     0.2    0.56    1.01    1.39    1.58    1.76    1.87    1.77    0.00    0.00    0.00    0.00    0.00    0.00    0.00    0.00    0.00    0.00    0.00    0.02    0.22    0.56    1.01    1.39    1.58    1.76    1.88    1.77
 2025 006    77     0     0    47.8    47.7     0.1     0.0    8.76   12.53    0.02    0.00    0.00    8.76    5.43    5.74    0.00    0.00     0.0     0.2    0.53    0.99    1.39    1.59    1.77    1.88    1.77    0.00    0.00    0.00    0.00    0.00    0.00    0.00    0.00    0.00    0.00    0.00    0.02    0.19    0.53    0.99    1.39    1.59    1.77    1.88    1.77
 2025 007    78     0     0    47.7    47.7     0.1     0.0    8.76   12.54    0.02    0.00    0.00    8.76    5.44    5.77    0.00    0.00     0.0     0.2    0.49    0.96    1.38    1.61    1.79    1.88    1.78    0.00    0.00    0.00    0.00    0.00    0.00    0.00    0.00    0.00    0.00    0.00    0.02    0.17    0.49    0.96    1.39    1.61    1.79    1.89    1.78
 2025 008    79     0     0    47.7    47.6     0.0     0.0    8.76   12.54    0.02    0.00    0.00    8.76    5.45    5.80    0.00    0.00     0.0     0.2    0.45    0.92    1.37    1.62    1.81    1.90    1.78    0.00    0.00    0.00    0.00    0.00    0.00    0.00    0.00    0.00    0.00    0.00    0.02    0.15    0.45    0.92    1.37    1.62    1.81    1.90    1.79
 2025 009    80     0     0    47.6    47.6     0.0     0.0    8.76   12.54    0.02    0.00    0.00    8.76    5.46    5.84    0.00    0.00     0.0     0.1    0.41    0.87    1.33    1.62    1.83    1.91    1.80    0.00    0.00    0.00    0.00    0.00    0.00    0.00    0.00    0.00    0.00    0.00    0.01    0.13    0.41    0.87    1.33    1.62    1.84    1.91    1.80
 2025 010    81     0     0    47.6    47.5     0.0     0.0    8.76   12.55    0.02    0.00    0.00    8.76    5.46    5.88    0.00    0.00     0.0     0.1    0.37    0.81    1.29    1.60    1.85    1.93    1.81    0.00    0.00    0.00    0.00    0.00    0.00    0.00    0.00    0.00    0.00    0.00    0.01    0.12    0.37    0.81    1.29    1.60    1.85    1.93    1.82
 2025 011    82     0     0    46.2    46.2     0.0     0.0    8.76   12.55    0.02    0.00    0.00    8.76    5.47    7.23    0.00    0.00     0.0     0.1    0.30    0.66    1.08    1.39    1.68    1.88    1.82    0.00    0.00    0.00    0.00    0.00    0.00    0.00    0.00    0.00    0.00    0.00    0.01    0.10    0.30    0.66    1.08    1.39    1.68    1.88    1.82
 2025 012    83     0     0    45.6    45.6     0.0     0.0    8.76   12.55    0.02    0.00    0.00    8.76    5.48    7.85    0.00    0.00     0.0     0.1    0.27    0.59    0.98    1.28    1.59    1.85    1.81    0.00    0.00    0.00    0.00    0.00    0.00    0.00    0.00    0.00    0.00    0.00    0.01    0.09    0.27    0.59    0.98    1.28    1.59    1.85    1.82
 2025 013    84     0     0    45.3    45.3     0.0     0.0    8.76   12.56    0.02    0.00    0.00    8.76    5.49    8.12    0.00    0.00     0.0     0.1    0.25    0.56    0.93    1.23    1.54    1.84    1.82    0.00    0.00    0.00    0.00    0.00    0.00    0.00    0.00    0.00    0.00    0.00    0.01    0.08    0.25    0.56    0.93    1.23    1.54    1.85    1.82
 2025 014    85     0     0    45.2    45.2     0.0     0.0    8.76   12.56    0.02    0.00    0.00    8.76    5.49    8.24    0.00    0.00     0.0     0.1    0.24    0.54    0.90    1.21    1.53    1.84    1.82    0.00    0.00    0.00    0.00    0.00    0.00    0.00    0.00    0.00    0.00    0.00    0.01    0.08    0.24    0.54    0.91    1.21    1.53    1.84    1.82
 2025 015    86     0     0    45.1    45.1     0.0     0.0    8.76   12.56    0.02    0.00    0.00    8.76    5.50    8.28    0.00    0.00     0.0     0.1    0.24    0.54    0.90    1.21    1.52    1.84    1.82    0.00    0.00    0.00    0.00    0.00    0.00    0.00    0.00    0.00    0.00    0.00    0.01    0.08    0.24    0.54    0.90    1.21    1.52    1.84    1.82
 2025 016    87     0     0    45.1    45.1     0.0     0.0    8.76   12.56    0.02    0.00    0.00    8.76    5.51    8.28    0.00    0.00     0.0     0.1    0.24    0.54    0.90    1.20    1.52    1.84    1.82    0.00    0.00    0.00    0.00    0.00    0.00    0.00    0.00    0.00    0.00    0.00    0.01    0.08    0.24    0.54    0.90    1.21    1.52    1.84    1.82
 2025 017    88     0     0    45.1    45.1     0.0     0.0    8.76   12.56    0.02    0.00    0.00    8.76    5.51    8.32    0.00    0.00     0.0     0.1    0.24    0.53    0.90    1.20    1.52    1.84    1.82    0.00    0.00    0.00    0.00    0.00    0.00    0.00    0.00    0.00    0.00    0.00    0.01    0.08    0.24    0.54    0.90    1.20    1.52    1.84    1.82
 2025 018    89     0     0    45.1    45.0     0.0     0.0    8.76   12.56    0.02    0.00    0.00    8.76    5.52    8.34    0.00    0.00     0.0     0.1    0.24    0.53    0.90    1.20    1.52    1.84    1.82    0.00    0.00    0.00    0.00    0.00    0.00    0.00    0.00    0.00    0.00    0.00    0.01    0.08    0.24    0.53    0.90    1.20    1.52    1.84    1.82
 2025 019    90     0     0    45.1    45.0     0.0     0.0    8.76   12.57    0.02    0.00    0.00    8.76    5.53    8.34    0.00    0.00     0.0     0.1    0.24    0.53    0.89    1.20    1.52    1.84    1.82    0.00    0.00    0.00    0.00    0.00    0.00    0.00    0.00    0.00    0.00    0.00    0.01    0.08    0.24    0.53    0.89    1.20    1.52    1.84    1.82
 2025 020    91     0     0    45.1    45.0     0.0     0.0    8.76   12.57    0.02    0.00    0.00    8.76    5.54    8.34    0.00    0.00     0.0     0.1    0.24    0.53    0.90    1.20    1.52    1.84    1.82    0.00    0.00    0.00    0.00    0.00    0.00    0.00    0.00    0.00    0.00    0.00    0.01    0.08    0.24    0.53    0.90    1.20    1.52    1.84    1.82
 2025 021    92     0     0    45.1    45.0     0.0     0.0    8.76   12.57    0.02    0.00    0.00    8.76    5.54    8.34    0.00    0.00     0.0     0.1    0.24    0.53    0.90    1.20    1.52    1.84    1.82    0.00    0.00    0.00    0.00    0.00    0.00    0.00    0.00    0.00    0.00    0.00    0.01    0.08    0.24    0.53    0.90    1.20    1.52    1.84    1.82
 2025 022    93     0     0    45.0    45.0     0.0     0.0    8.76   12.57    0.02    0.00    0.00    8.76    5.55    8.34    0.00    0.00     0.0     0.1    0.24    0.53    0.90    1.20    1.51    1.84    1.82    0.00    0.00    0.00    0.00    0.00    0.00    0.00    0.00    0.00    0.00    0.00    0.01    0.08    0.24    0.53    0.90    1.20    1.52    1.84    1.82
 2025 023    94     0     0    45.0    45.0     0.0     0.0    8.76   12.57    0.02    0.00    0.00    8.76    5.56    8.34    0.00    0.00     0.0     0.1    0.24    0.53    0.90    1.21    1.51    1.84    1.81    0.00    0.00    0.00    0.00    0.00    0.00    0.00    0.00    0.00    0.00    0.00    0.01    0.08    0.24    0.53    0.90    1.21    1.52    1.84    1.82
 2025 024    95     0     0    45.0    45.0     0.0     0.0    8.76   12.57    0.02    0.00    0.00    8.76    5.57    8.34    0.00    0.00     0.0     0.1    0.24    0.53    0.90    1.20    1.52    1.84    1.81    0.00    0.00    0.00    0.00    0.00    0.00    0.00    0.00    0.00    0.00    0.00    0.01    0.08    0.24    0.53    0.90    1.21    1.52    1.84    1.81
 2025 025    96     0     0    44.9    44.9     0.0     0.0    8.76   12.57    0.02    0.00    0.00    8.76    5.57    8.45    0.00    0.00     0.0     0.1    0.23    0.52    0.88    1.19    1.50    1.84    1.81    0.00    0.00    0.00    0.00    0.00    0.00    0.00    0.00    0.00    0.00    0.00    0.01    0.08    0.23    0.52    0.88    1.19    1.50    1.84    1.81
 2025 026    97     0     0    44.9    44.9     0.0     0.0    8.76   12.57    0.02    0.00    0.00    8.76    5.58    8.45    0.00    0.00     0.0     0.1    0.23    0.52    0.88    1.19    1.50    1.84    1.81    0.00    0.00    0.00    0.00    0.00    0.00    0.00    0.00    0.00    0.00    0.00    0.02    0.08    0.23    0.52    0.88    1.19    1.50    1.84    1.81
 2025 027    98     0     0    44.9    44.9     0.0     0.0    8.76   12.58    0.02    0.00    0.00    8.76    5.59    8.45    0.00    0.00     0.0     0.1    0.23    0.51    0.88    1.19    1.50    1.83    1.82    0.00    0.00    0.00    0.00    0.00    0.00    0.00    0.00    0.00    0.00    0.00    0.01    0.08    0.23    0.51    0.88    1.19    1.50    1.83    1.82
 2025 028    99     0     0    44.9    44.9     0.0     0.0    8.77   12.58    0.02    0.00    0.00    8.77    5.60    8.45    0.00    0.00     0.0     0.1    0.22    0.51    0.88    1.19    1.51    1.83    1.82    0.00    0.00    0.00    0.00    0.00    0.00    0.00    0.00    0.00    0.00    0.00    0.01    0.07    0.22    0.51    0.88    1.19    1.51    1.83    1.82
 2025 029   100     0     0    44.9    44.9     0.0     0.0    8.77   12.58    0.02    0.00    0.00    8.77    5.61    8.45    0.00    0.00     0.0     0.1    0.21    0.50    0.87    1.19    1.51    1.83    1.82    0.00    0.00    0.00    0.00    0.00    0.00    0.00    0.00    0.00    0.00    0.00    0.01    0.07    0.21    0.50    0.87    1.19    1.51    1.83    1.82
 2025 030   101     0     0    44.9    44.9     0.0     0.0    8.78   12.58    0.02    0.00    0.00    8.78    5.62    8.45    0.00    0.00     0.0     0.1    0.20    0.48    0.86    1.19    1.52    1.83    1.83    0.00    0.00    0.00    0.00    0.00    0.00    0.00    0.00    0.00    0.00    0.00    0.01    0.06    0.20    0.48    0.86    1.19    1.52    1.84    1.83
 2025 031   102     0     0    44.9    44.8     0.0     0.0    8.78   12.58    0.02    0.00    0.00    8.78    5.63    8.45    0.00    0.00     0.0     0.1    0.19    0.46    0.84    1.18    1.53    1.84    1.83    0.00    0.00    0.00    0.00    0.00    0.00    0.00    0.00    0.00    0.00    0.00    0.01    0.06    0.19    0.46    0.84    1.19    1.53    1.84    1.83
 2025 032   103     0     0    44.2    44.1     0.0     0.0    8.78   12.58    0.02    0.00    0.00    8.78    5.64    9.15    0.00    0.00     0.0     0.1    0.16    0.40    0.74    1.07    1.41    1.79    1.82    0.00    0.00    0.00    0.00    0.00    0.00    0.00    0.00    0.00    0.00    0.00    0.01    0.05    0.16    0.40    0.74    1.07    1.41    1.79    1.82
 2025 033   104     0     0    43.9    43.8     0.0     0.0    8.78   12.59    0.02    0.00    0.00    8.78    5.65    9.45    0.00    0.00     0.0     0.1    0.16    0.38    0.70    1.01    1.36    1.77    1.82    0.00    0.00    0.00    0.00    0.00    0.00    0.00    0.00    0.00    0.00    0.00    0.01    0.05    0.16    0.38    0.70    1.01    1.36    1.77    1.82
 2025 034   105     0     0    43.8    43.8     0.0     0.0    8.78   12.59    0.02    0.00    0.00    8.78    5.65    9.45    0.00    0.00     0.0     0.1    0.16    0.37    0.69    1.01    1.36    1.77    1.83    0.00    0.00    0.00    0.00    0.00    0.00    0.00    0.00    0.00    0.00    0.00    0.01    0.05    0.16    0.37    0.69    1.01    1.36    1.77    1.83
 2025 035   106     0     0    43.7    43.7     0.0     0.0    8.78   12.59    0.02    0.00    0.00    8.78    5.66    9.56    0.00    0.00     0.0     0.1    0.15    0.37    0.68    0.99    1.34    1.76    1.83    0.00    0.00    0.00    0.00    0.00    0.00    0.00    0.00    0.00    0.00    0.00    0.01    0.05    0.15    0.37    0.68    0.99    1.34    1.77    1.83
 2025 036   107     0     0    43.7    43.7     0.0     0.0    8.78   12.59    0.02    0.00    0.00    8.78    5.67    9.56    0.00    0.00     0.0     0.1    0.15    0.36    0.68    0.99    1.34    1.76    1.83    0.00    0.00    0.00    0.00    0.00    0.00    0.00    0.00    0.00    0.00    0.00    0.01    0.05    0.15    0.36    0.68    0.99    1.34    1.76    1.83
 2025 037   108     0     0    43.7    43.7     0.0     0.0    8.78   12.59    0.02    0.00    0.00    8.78    5.68    9.56    0.00    0.00     0.0     0.1    0.15    0.37    0.68    0.99    1.34    1.76    1.83    0.00    0.00    0.00    0.00    0.00    0.00    0.00    0.00    0.00    0.00    0.00    0.01    0.05    0.15    0.37    0.68    0.99    1.34    1.76    1.83
 2025 038   109     0     0    43.7    43.7     0.0     0.0    8.78   12.59    0.02    0.00    0.00    8.78    5.69    9.56    0.00    0.00     0.0     0.1    0.15    0.36    0.68    0.99    1.34    1.76    1.83    0.00    0.00    0.00    0.00    0.00    0.00    0.00    0.00    0.00    0.00    0.00    0.01    0.05    0.15    0.36    0.68    0.99    1.34    1.76    1.83
 2025 039   110     0     0    43.7    43.7     0.0     0.0    8.78   12.59    0.02    0.00    0.00    8.78    5.70    9.56    0.00    0.00     0.0     0.1    0.15    0.36    0.68    0.99    1.34    1.76    1.83    0.00    0.00    0.00    0.00    0.00    0.00    0.00    0.00    0.00    0.00    0.00    0.01    0.05    0.15    0.36    0.68    0.99    1.34    1.76    1.83
 2025 040   111     0     0    43.7    43.7     0.0     0.0    8.78   12.60    0.02    0.00    0.00    8.78    5.71    9.56    0.00    0.00     0.0     0.1    0.16    0.37    0.68    1.00    1.34    1.76    1.82    0.00    0.00    0.00    0.00    0.00    0.00    0.00    0.00    0.00    0.00    0.00    0.01    0.05    0.16    0.37    0.68    1.00    1.34    1.76    1.82
 2025 041   112     0     0    43.7    43.7     0.0     0.0    8.78   12.60    0.02    0.00    0.00    8.78    5.72    9.56    0.00    0.00     0.0     0.1    0.16    0.37    0.68    1.00    1.34    1.76    1.82    0.00    0.00    0.00    0.00    0.00    0.00    0.00    0.00    0.00    0.00    0.00    0.01    0.06    0.16    0.37    0.68    1.00    1.34    1.76    1.82
 2025 042   113     0     0    43.7    43.6     0.0     0.0    8.78   12.60    0.02    0.00    0.00    8.78    5.73    9.56    0.00    0.00     0.0     0.1    0.16    0.37    0.69    1.00    1.35    1.76    1.82    0.00    0.00    0.00    0.00    0.00    0.00    0.00    0.00    0.00    0.00    0.00    0.01    0.05    0.16    0.37    0.69    1.00    1.35    1.76    1.82
 2025 043   114     0     0    43.6    43.6     0.0     0.0    8.78   12.60    0.02    0.00    0.00    8.78    5.75    9.56    0.00    0.00     0.0     0.1    0.15    0.37    0.68    1.00    1.36    1.76    1.82    0.00    0.00    0.00    0.00    0.00    0.00    0.00    0.00    0.00    0.00    0.00    0.01    0.05    0.15    0.37    0.68    1.00    1.36    1.76    1.82
 2025 044   115     0     0    43.6    43.6     0.0     0.0    8.79   12.60    0.02    0.00    0.00    8.78    5.76    9.56    0.00    0.00     0.0     0.0    0.14    0.36    0.68    1.01    1.36    1.77    1.82    0.00    0.00    0.00    0.00    0.00    0.00    0.00    0.00    0.00    0.00    0.00    0.01    0.04    0.14    0.36    0.68    1.01    1.36    1.77    1.82
 2025 045   116     0     0    42.6    42.6     0.0     0.0    8.79   12.60    0.02    0.00    0.00    8.78    5.77   10.54    0.00    0.00     0.0     0.0    0.11    0.28    0.55    0.85    1.21    1.70    1.80    0.00    0.00    0.00    0.00    0.00    0.00    0.00    0.00    0.00    0.00    0.00    0.01    0.03    0.11    0.28    0.55    0.85    1.21    1.70    1.80
 2025 046   117     0     0    42.2    42.1     0.0     0.0    8.79   12.60    0.02    0.00    0.00    8.78    5.77   11.02    0.00    0.00     0.0     0.0    0.09    0.24    0.49    0.77    1.14    1.66    1.79    0.00    0.00    0.00    0.00    0.00    0.00    0.00    0.00    0.00    0.00    0.00    0.01    0.03    0.09    0.24    0.49    0.77    1.14    1.66    1.79
 2025 047   118     0     0    41.9    41.9     0.0     0.0    8.79   12.60    0.02    0.00    0.00    8.78    5.78   11.24    0.00    0.00     0.0     0.0    0.09    0.23    0.46    0.74    1.11    1.64    1.79    0.00    0.00    0.00    0.00    0.00    0.00    0.00    0.00    0.00    0.00    0.00    0.00    0.03    0.09    0.23    0.46    0.74    1.11    1.64    1.79
 2025 048   119     0     0    41.8    41.8     0.0     0.0    8.79   12.60    0.02    0.00    0.00    8.78    5.79   11.33    0.00    0.00     0.0     0.0    0.08    0.22    0.45    0.73    1.09    1.63    1.79    0.00    0.00    0.00    0.00    0.00    0.00    0.00    0.00    0.00    0.00    0.00    0.00    0.03    0.08    0.22    0.45    0.73    1.09    1.63    1.79
 2025 049   120     0     0    41.8    41.8     0.0     0.0    8.79   12.60    0.02    0.00    0.00    8.78    5.80   11.35    0.00    0.00     0.0     0.0    0.08    0.22    0.45    0.73    1.09    1.63    1.78    0.00    0.00    0.00    0.00    0.00    0.00    0.00    0.00    0.00    0.00    0.00    0.00    0.03    0.08    0.22    0.45    0.73    1.09    1.63    1.78
 2025 050   121     0     0    41.8    41.8     0.0     0.0    8.79   12.60    0.02    0.00    0.00    8.78    5.80   11.35    0.00    0.00     0.0     0.0    0.08    0.22    0.45    0.73    1.09    1.63    1.78    0.00    0.00    0.00    0.00    0.00    0.00    0.00    0.00    0.00    0.00    0.00    0.01    0.03    0.08    0.22    0.45    0.73    1.09    1.63    1.78
 2025 051   122     0     0    41.8    41.8     0.0     0.0    8.79   12.60    0.02    0.00    0.00    8.78    5.81   11.35    0.00    0.00     0.0     0.0    0.09    0.22    0.45    0.73    1.10    1.63    1.78    0.00    0.00    0.00    0.00    0.00    0.00    0.00    0.00    0.00    0.00    0.00    0.01    0.03    0.09    0.22    0.45    0.73    1.10    1.63    1.78
 2025 052   123     0     0    41.8    41.8     0.0     0.0    8.79   12.60    0.02    0.00    0.00    8.78    5.82   11.35    0.00    0.00     0.0     0.0    0.09    0.22    0.45    0.74    1.10    1.63    1.78    0.00    0.00    0.00    0.00    0.00    0.00    0.00    0.00    0.00    0.00    0.00    0.01    0.03    0.09    0.22    0.45    0.74    1.10    1.63    1.78
 2025 053   124     0     0    41.8    41.8     0.0     0.0    8.79   12.60    0.02    0.00    0.00    8.78    5.83   11.35    0.00    0.00     0.0     0.0    0.09    0.23    0.46    0.74    1.10    1.62    1.78    0.00    0.00    0.00    0.00    0.00    0.00    0.00    0.00    0.00    0.00    0.00    0.01    0.03    0.09    0.23    0.46    0.74    1.10    1.62    1.78
 2025 054   125     0     0    41.8    41.8     0.0     0.0    8.79   12.60    0.02    0.00    0.00    8.78    5.84   11.35    0.00    0.00     0.0     0.0    0.09    0.23    0.46    0.75    1.11    1.62    1.77    0.00    0.00    0.00    0.00    0.00    0.00    0.00    0.00    0.00    0.00    0.00    0.01    0.03    0.09    0.23    0.46    0.75    1.11    1.62    1.77
 2025 055   126     0     0    41.8    41.7     0.0     0.0    8.79   12.61    0.02    0.00    0.00    8.78    5.85   11.35    0.00    0.00     0.0     0.0    0.10    0.23    0.47    0.75    1.11    1.62    1.77    0.00    0.00    0.00    0.00    0.00    0.00    0.00    0.00    0.00    0.00    0.00    0.01    0.03    0.10    0.23    0.47    0.75    1.11    1.62    1.77
 2025 056   127     0     0    41.7    41.7     0.0     0.0    8.79   12.61    0.02    0.00    0.00    8.79    5.86   11.35    0.00    0.00     0.0     0.0    0.09    0.23    0.46    0.75    1.11    1.62    1.77    0.00    0.00    0.00    0.00    0.00    0.00    0.00    0.00    0.00    0.00    0.00    0.01    0.03    0.09    0.23    0.46    0.75    1.11    1.62    1.77
 2025 057   128     0     0    41.8    41.7     0.1     0.0    8.85   12.61    0.02    0.00    0.00    8.85    5.87   11.35    0.00    0.00     0.0     0.0    0.09    0.23    0.46    0.75    1.11    1.62    1.77    0.02    0.02    0.00    0.00    0.00    0.00    0.00    0.00    0.00    0.00    0.02    0.03    0.04    0.09    0.23    0.46    0.75    1.11    1.62    1.77
 2025 058   129     0     0    41.8    41.7     0.1     0.0    8.86   12.61    0.02    0.00    0.00    8.86    5.89   11.35    0.00    0.00     0.0     0.0    0.09    0.23    0.46    0.75    1.11    1.62    1.77    0.01    0.01    0.00    0.00    0.00    0.00    0.00    0.00    0.00    0.00    0.01    0.02    0.04    0.09    0.23    0.46    0.76    1.12    1.62    1.77
 2025 059   130     0     0    41.8    41.7     0.1     0.0    8.87   12.62    0.02    0.00    0.00    8.87    5.91   11.35    0.00    0.00     0.0     0.0    0.09    0.23    0.46    0.76    1.12    1.62    1.77    0.01    0.01    0.00    0.00    0.00    0.00    0.00    0.00    0.00    0.00    0.01    0.02    0.04    0.09    0.23    0.46    0.76    1.12    1.62    1.77
 2025 060   131     0     0    41.8    41.7     0.1     0.0    8.87   12.62    0.02    0.00    0.00    8.87    5.93   11.35    0.00    0.00     0.0     0.0    0.09    0.23    0.46    0.76    1.12    1.62    1.77    0.01    0.01    0.00    0.00    0.00    0.00    0.00    0.00    0.00    0.00    0.01    0.02    0.04    0.09    0.23    0.46    0.76    1.12    1.62    1.77
 2025 061   132     0     0    41.7    41.7     0.1     0.0    8.87   12.63    0.02    0.00    0.00    8.87    5.94   11.35    0.00    0.00     0.0     0.0    0.09    0.22    0.45    0.75    1.11    1.62    1.78    0.01    0.01    0.00    0.00    0.00    0.00    0.00    0.00    0.00    0.00    0.01    0.02    0.03    0.09    0.22    0.45    0.75    1.11    1.62    1.78
 2025 062   133     0     0    41.7    41.7     0.1     0.0    8.87   12.63    0.02    0.00    0.00    8.87    5.96   11.35    0.00    0.00     0.0     0.0    0.09    0.22    0.45    0.75    1.12    1.61    1.77    0.00    0.01    0.00    0.00    0.00    0.00    0.00    0.00    0.00    0.00    0.01    0.02    0.04    0.09    0.23    0.45    0.76    1.12    1.61    1.77
 2025 063   134     0     0    41.7    41.7     0.0     0.0    8.87   12.64    0.02    0.00    0.00    8.87    5.98   11.35    0.00    0.01     0.0     0.0    0.10    0.23    0.46    0.76    1.13    1.61    1.77    0.00    0.01    0.00    0.00    0.00    0.00    0.00    0.00    0.00    0.00    0.01    0.02    0.04    0.10    0.23    0.46    0.76    1.13    1.61    1.77
 2025 064   135     0     0    41.7    41.6     0.0     0.0    8.87   12.64    0.02    0.00    0.00    8.87    6.01   11.35    0.00    0.01     0.0     0.0    0.10    0.23    0.46    0.77    1.13    1.61    1.77    0.00    0.01    0.00    0.00    0.00    0.00    0.00    0.00    0.00    0.00    0.01    0.02    0.04    0.10    0.24    0.46    0.77    1.13    1.61    1.77
 2025 065   136     0     0    41.7    41.6     0.0     0.0    8.87   12.64    0.02    0.00    0.00    8.87    6.03   11.35    0.00    0.01     0.0     0.0    0.10    0.23    0.46    0.77    1.13    1.61    1.77    0.00    0.01    0.00    0.00    0.00    0.00    0.00    0.00    0.00    0.00    0.01    0.02    0.04    0.10    0.23    0.46    0.77    1.13    1.61    1.77
 2025 066   137     0     0    41.6    41.6     0.0     0.0    8.87   12.65    0.02    0.00    0.00    8.87    6.05   11.35    0.00    0.01     0.0     0.0    0.10    0.23    0.45    0.77    1.13    1.61    1.77    0.00    0.00    0.00    0.00    0.00    0.00    0.00    0.00    0.00    0.00    0.01    0.02    0.04    0.10    0.23    0.45    0.77    1.13    1.61    1.77
 2025 067   138     0     0    41.6    41.6     0.1     0.0    8.91   12.65    0.02    0.00    0.00    8.90    6.08   11.35    0.00    0.01     0.0     0.0    0.09    0.22    0.45    0.76    1.13    1.61    1.77    0.01    0.01    0.00    0.00    0.00    0.00    0.00    0.00    0.00    0.00    0.01    0.03    0.04    0.10    0.22    0.45    0.77    1.13    1.61    1.77
 2025 068   139     0     0    41.7    41.6     0.2     0.0    9.02   12.66    0.02    0.00    0.00    9.02    6.10   11.35    0.00    0.01     0.0     0.0    0.09    0.22    0.44    0.76    1.13    1.61    1.77    0.03    0.05    0.01    0.00    0.00    0.00    0.00    0.00    0.00    0.00    0.04    0.07    0.05    0.10    0.22    0.45    0.77    1.14    1.61    1.77
 2025 069   140     0     0    41.9    41.5     0.3     0.0    9.20   12.67    0.02    0.00    0.00    9.20    6.14   11.35    0.00    0.01     0.0     0.0    0.09    0.22    0.44    0.76    1.13    1.61    1.77    0.07    0.11    0.03    0.01    0.01    0.01    0.01    0.01    0.01    0.01    0.08    0.13    0.07    0.10    0.22    0.45    0.77    1.14    1.61    1.77
 2025 070   141     0     0    42.1    41.6     0.5     0.0    9.42   12.71    0.02    0.00    0.00    9.42    6.18   11.35    0.00    0.02     0.0     0.0    0.09    0.21    0.43    0.76    1.13    1.61    1.77    0.12    0.17    0.05    0.01    0.01    0.01    0.01    0.01    0.01    0.01    0.14    0.20    0.08    0.10    0.22    0.44    0.77    1.14    1.62    1.77
 2025 071   142     0     0    42.2    41.6     0.7     0.0    9.64   12.76    0.02    0.00    0.00    9.64    6.23   11.35    0.00    0.03     0.0     0.0    0.09    0.21    0.43    0.76    1.14    1.61    1.77    0.16    0.22    0.06    0.02    0.02    0.02    0.02    0.01    0.01    0.01    0.19    0.27    0.10    0.10    0.23    0.44    0.77    1.15    1.62    1.78
 2025 072   143     0     0    42.3    41.6     0.7     0.0    9.83   12.82    0.02    0.00    0.00    9.83    6.31   11.35    0.00    0.03     0.1     0.0    0.09    0.21    0.42    0.76    1.14    1.61    1.77    0.18    0.25    0.07    0.02    0.02    0.02    0.02    0.02    0.01    0.01    0.22    0.31    0.12    0.11    0.22    0.44    0.77    1.15    1.62    1.78
 2025 073   144     0     0    42.4    41.6     0.7     0.0    9.94   12.88    0.02    0.00    0.00    9.93    6.39   11.35    0.00    0.04     0.1     0.1    0.09    0.21    0.42    0.76    1.14    1.61    1.77    0.17    0.24    0.07    0.02    0.02    0.02    0.02    0.02    0.01    0.01    0.21    0.32    0.12    0.11    0.23    0.44    0.78    1.16    1.62    1.78
 2025 074   145     0     0    42.3    41.6     0.7     0.0    9.97   12.94    0.02    0.00    0.00    9.97    6.48   11.35    0.00    0.05     0.1     0.1    0.09    0.21    0.42    0.76    1.14    1.61    1.77    0.14    0.21    0.06    0.02    0.02    0.02    0.02    0.02    0.01    0.01    0.18    0.30    0.12    0.11    0.23    0.44    0.78    1.16    1.62    1.78
 2025 075   146     0     0    42.2    41.7     0.6     0.0    9.98   12.99    0.02    0.00    0.00    9.97    6.56   11.35    0.00    0.05     0.1     0.1    0.09    0.21    0.43    0.76    1.15    1.61    1.76    0.10    0.18    0.06    0.02    0.02    0.02    0.02    0.01    0.01    0.01    0.15    0.28    0.12    0.11    0.23    0.44    0.78    1.16    1.62    1.77
 2025 076   147     0     0    42.1    41.7     0.5     0.0    9.98   13.03    0.02    0.00    0.00    9.98    6.64   11.35    0.00    0.06     0.1     0.1    0.10    0.22    0.43    0.77    1.16    1.61    1.76    0.07    0.15    0.05    0.01    0.01    0.01    0.01    0.01    0.01    0.01    0.13    0.25    0.12    0.11    0.23    0.45    0.78    1.17    1.62    1.77
 2025 077   148     0     0    42.1    41.6     0.4     0.0    9.98   13.07    0.02    0.00    0.00    9.98    6.71   11.35    0.00    0.05     0.1     0.1    0.09    0.21    0.43    0.77    1.16    1.61    1.76    0.06    0.13    0.05    0.01    0.01    0.01    0.01    0.01    0.01    0.01    0.11    0.23    0.11    0.11    0.22    0.44    0.78    1.17    1.62    1.77
 2025 078   149     0     0    42.0    41.6     0.4     0.0    9.98   13.10    0.02    0.00    0.00    9.98    6.77   11.35    0.00    0.05     0.1     0.1    0.09    0.21    0.42    0.76    1.16    1.61    1.76    0.05    0.11    0.04    0.01    0.01    0.01    0.01    0.01    0.01    0.01    0.10    0.21    0.11    0.11    0.22    0.43    0.78    1.17    1.62    1.77
 2025 079   150     0     0    42.0    41.6     0.4     0.0    9.98   13.12    0.02    0.00    0.00    9.98    6.83   11.35    0.00    0.05     0.1     0.1    0.09    0.21    0.42    0.76    1.16    1.61    1.76    0.04    0.10    0.04    0.01    0.01    0.01    0.01    0.01    0.01    0.01    0.09    0.19    0.10    0.10    0.22    0.43    0.77    1.17    1.62    1.77
 2025 080   151     0     0    41.9    41.6     0.3     0.0    9.98   13.15    0.02    0.00    0.00    9.98    6.88   11.35    0.00    0.05     0.1     0.1    0.09    0.20    0.41    0.76    1.16    1.61    1.76    0.03    0.09    0.03    0.01    0.01    0.01    0.01    0.01    0.01    0.01    0.08    0.18    0.10    0.10    0.21    0.42    0.77    1.17    1.62    1.77
 2025 081   152     0     0    41.9    41.6     0.3     0.0    9.98   13.17    0.02    0.00    0.00    9.98    6.92   11.35    0.00    0.05     0.1     0.1    0.09    0.20    0.41    0.75    1.16    1.61    1.76    0.03    0.07    0.03    0.01    0.01    0.01    0.01    0.01    0.01    0.01    0.08    0.17    0.10    0.10    0.21    0.42    0.76    1.17    1.62    1.77
 2025 082   153     0     0    41.9    41.6     0.3     0.0   10.07   13.20    0.02    0.00    0.00   10.07    6.97   11.35    0.00    0.05     0.1     0.1    0.09    0.20    0.40    0.75    1.16    1.61    1.76    0.05    0.09    0.03    0.01    0.01    0.01    0.01    0.01    0.01    0.01    0.09    0.19    0.10    0.10    0.21    0.41    0.76    1.17    1.62    1.77
 2025 083   154     0     0    42.1    41.6     0.5     0.0   10.30   13.23    0.02    0.00    0.00   10.29    7.03   11.35    0.00    0.03     0.1     0.1    0.09    0.19    0.40    0.75    1.16    1.61    1.76    0.11    0.16    0.05    0.01    0.01    0.01    0.01    0.01    0.01    0.01    0.15    0.25    0.12    0.10    0.21    0.41    0.76    1.17    1.62    1.77
 2025 084   155     0     0    42.3    41.6     0.7     0.0   10.58   13.29    0.02    0.00    0.00   10.58    7.09   11.35    0.00    0.04     0.1     0.1    0.09    0.20    0.40    0.75    1.16    1.61    1.76    0.19    0.23    0.07    0.02    0.02    0.02    0.02    0.02    0.01    0.01    0.23    0.32    0.15    0.11    0.22    0.42    0.77    1.18    1.63    1.77
 2025 085   156     0     0    42.5    41.6     0.9     0.0   10.90   13.37    0.02    0.00    0.00   10.90    7.17   11.35    0.00    0.06     0.1     0.1    0.10    0.20    0.41    0.76    1.17    1.61    1.76    0.26    0.30    0.09    0.02    0.02    0.02    0.02    0.02    0.02    0.01    0.32    0.40    0.17    0.12    0.22    0.43    0.78    1.19    1.63    1.77
 2025 086   157     0     0    42.7    41.7     1.1     0.0   11.17   13.47    0.02    0.00    0.00   11.17    7.26   11.35    0.00    0.08     0.1     0.1    0.10    0.20    0.41    0.77    1.17    1.61    1.76    0.30    0.34    0.10    0.03    0.03    0.03    0.03    0.02    0.02    0.01    0.38    0.47    0.19    0.13    0.23    0.44    0.79    1.20    1.63    1.77
 2025 087   158     0     0    42.8    41.7     1.1     0.0   11.40   13.58    0.02    0.00    0.00   11.40    7.37   11.35    0.00    0.10     0.1     0.1    0.10    0.20    0.41    0.77    1.19    1.61    1.76    0.31    0.37    0.11    0.03    0.03    0.03    0.03    0.02    0.02    0.02    0.41    0.51    0.20    0.13    0.23    0.44    0.80    1.21    1.63    1.77
 2025 088   159     0     0    42.9    41.8     1.2     0.0   11.62   13.69    0.02    0.00    0.00   11.62    7.51   11.35    0.00    0.12     0.2     0.1    0.11    0.21    0.42    0.78    1.21    1.61    1.75    0.30    0.38    0.11    0.03    0.03    0.03    0.03    0.03    0.02    0.02    0.43    0.53    0.21    0.14    0.24    0.45    0.81    1.24    1.63    1.77
 2025 089   160     0     0    43.0    41.8     1.2     0.0   11.82   13.80    0.02    0.00    0.00   11.81    7.66   11.35    0.00    0.14     0.2     0.1    0.11    0.21    0.42    0.78    1.22    1.62    1.75    0.30    0.38    0.11    0.03    0.03    0.03    0.03    0.03    0.02    0.02    0.43    0.55    0.22    0.14    0.24    0.45    0.81    1.25    1.64    1.77
 2025 090   161     0     0    43.0    41.8     1.1     0.0   11.95   13.91    0.02    0.00    0.00   11.95    7.81   11.35    0.00    0.14     0.2     0.1    0.11    0.20    0.41    0.77    1.22    1.63    1.75    0.27    0.36    0.11    0.03    0.03    0.03    0.03    0.03    0.02    0.02    0.41    0.55    0.23    0.14    0.23    0.44    0.80    1.25    1.65    1.77
 2025 091   162     0     0    42.9    41.9     1.1     0.0   12.07   14.01    0.02    0.00    0.00   12.07    7.96   11.35    0.00    0.14     0.2     0.1    0.11    0.20    0.41    0.76    1.22    1.65    1.75    0.24    0.34    0.10    0.03    0.03    0.03    0.03    0.03    0.02    0.02    0.39    0.54    0.23    0.14    0.23    0.43    0.79    1.24    1.67    1.77
 2025 092   163     0     0    42.9    41.9     1.0     0.0   12.17   14.10    0.02    0.00    0.00   12.16    8.11   11.35    0.00    0.15     0.2     0.1    0.11    0.20    0.40    0.73    1.18    1.64    1.79    0.21    0.32    0.10    0.03    0.03    0.03    0.03    0.03    0.02    0.02    0.36    0.52    0.22    0.14    0.23    0.42    0.76    1.21    1.66    1.81
 2025 093   164     0     0    42.8    41.9     1.0     0.0   12.28   14.19    0.02    0.00    0.00   12.28    8.26   11.35    0.00    0.17     0.2     0.1    0.11    0.20    0.40    0.74    1.19    1.64    1.79    0.20    0.30    0.09    0.03    0.03    0.03    0.03    0.03    0.02    0.02    0.36    0.50    0.22    0.14    0.23    0.43    0.77    1.21    1.66    1.81
 2025 094   165     0     0    42.8    41.9     1.0     0.0   12.42   14.28    0.02    0.00    0.00   12.42    8.41   11.35    0.00    0.19     0.2     0.1    0.12    0.21    0.41    0.75    1.19    1.64    1.79    0.20    0.30    0.09    0.03    0.03    0.03    0.03    0.03    0.02    0.02    0.39    0.50    0.22    0.15    0.24    0.44    0.78    1.22    1.66    1.80
 2025 095   166     0     0    42.9    41.9     1.0     0.0   12.62   14.38    0.02    0.00    0.00   12.62    8.56   11.35    0.00    0.22     0.2     0.1    0.12    0.22    0.42    0.76    1.20    1.63    1.78    0.22    0.31    0.10    0.03    0.03    0.03    0.03    0.03    0.02    0.02    0.43    0.51    0.23    0.15    0.25    0.45    0.79    1.23    1.66    1.80
 2025 096   167     0     0    43.0    41.9     1.1     0.0   12.88   14.48    0.02    0.00    0.00   12.88    8.71   11.35    0.00    0.22     0.2     0.1    0.12    0.22    0.42    0.75    1.20    1.64    1.78    0.25    0.35    0.11    0.03    0.03    0.03    0.03    0.03    0.02    0.02    0.47    0.56    0.24    0.15    0.25    0.45    0.79    1.22    1.66    1.80
 2025 097   168     0     0    43.0    41.9     1.2     0.0   13.10   14.60    0.02    0.00    0.00   13.10    8.86   11.35    0.00    0.23     0.2     0.1    0.12    0.21    0.41    0.75    1.19    1.64    1.79    0.27    0.36    0.11    0.03    0.03    0.03    0.03    0.03    0.02    0.02    0.50    0.59    0.25    0.15    0.24    0.44    0.78    1.22    1.66    1.80
 2025 098   169     0     0    43.0    41.9     1.2     0.0   13.25   14.71    0.02    0.00    0.00   13.25    9.01   11.35    0.00    0.24     0.2     0.1    0.12    0.21    0.40    0.74    1.19    1.64    1.79    0.26    0.35    0.11    0.03    0.03    0.03    0.03    0.03    0.02    0.02    0.51    0.60    0.25    0.15    0.24    0.44    0.77    1.22    1.67    1.81
 2025 099   170     0     0    43.0    41.9     1.1     0.0   13.34   14.81    0.02    0.00    0.00   13.33    9.15   11.35    0.00    0.26     0.3     0.1    0.12    0.21    0.40    0.73    1.18    1.64    1.79    0.25    0.33    0.10    0.03    0.03    0.03    0.03    0.03    0.02    0.02    0.51    0.58    0.24    0.15    0.24    0.43    0.77    1.21    1.67    1.81
 2025 100   171     0     0    42.9    41.9     1.0     0.0   13.38   14.90    0.02    0.00    0.00   13.37    9.29   11.35    0.00    0.27     0.3     0.1    0.11    0.20    0.39    0.73    1.18    1.64    1.79    0.23    0.29    0.09    0.03    0.03    0.03    0.03    0.03    0.02    0.02    0.50    0.55    0.23    0.14    0.23    0.42    0.76    1.20    1.67    1.81
 2025 101   172     0     0    42.8    41.9     0.9     0.0   13.39   14.98    0.02    0.00    0.00   13.38    9.43   11.35    0.00    0.28     0.3     0.1    0.11    0.20    0.38    0.72    1.17    1.65    1.79    0.21    0.25    0.08    0.03    0.03    0.03    0.03    0.02    0.02    0.02    0.49    0.51    0.22    0.14    0.22    0.41    0.74    1.20    1.67    1.81
 2025 102   173     0     0    42.7    41.8     0.9     0.0   13.45   15.06    0.02    0.00    0.00   13.45    9.56   11.35    0.00    0.29     0.3     0.1    0.11    0.19    0.37    0.71    1.16    1.65    1.79    0.21    0.23    0.08    0.02    0.02    0.02    0.03    0.02    0.02    0.02    0.50    0.49    0.22    0.14    0.22    0.40    0.73    1.19    1.67    1.81
 2025 103   174     0     0    42.7    41.8     0.9     0.0   13.61   15.14    0.02    0.00    0.00   13.60    9.70   11.35    0.00    0.30     0.3     0.1    0.11    0.19    0.37    0.70    1.15    1.65    1.79    0.22    0.25    0.08    0.03    0.03    0.03    0.03    0.03    0.02    0.02    0.52    0.51    0.22    0.13    0.21    0.39    0.73    1.18    1.67    1.81
 2025 104   175     0     0    42.8    41.8     1.0     0.0   13.83   15.23    0.02    0.00    0.00   13.82    9.84   11.35    0.00    0.32     0.3     0.1    0.11    0.18    0.36    0.69    1.14    1.65    1.80    0.24    0.29    0.09    0.03    0.03    0.03    0.03    0.03    0.02    0.02    0.56    0.55    0.23    0.14    0.21    0.39    0.72    1.17    1.67    1.81
 2025 105   176     0     0    42.9    41.8     1.2     0.0   14.14   15.35    0.02    0.00    0.00   14.13   10.00   11.35    0.00    0.33     0.3     0.1    0.10    0.18    0.35    0.68    1.13    1.65    1.80    0.28    0.34    0.11    0.03    0.03    0.03    0.03    0.03    0.03    0.02    0.61    0.61    0.25    0.14    0.21    0.38    0.71    1.16    1.68    1.82
 2025 106   177     0     0    43.2    41.8     1.4     0.0   14.52   15.50    0.02    0.00    0.00   14.52   10.17   11.35    0.00    0.35     0.3     0.1    0.10    0.18    0.35    0.67    1.12    1.65    1.80    0.33    0.40    0.12    0.04    0.04    0.04    0.04    0.03    0.03    0.02    0.68    0.69    0.27    0.15    0.22    0.38    0.71    1.16    1.68    1.82
 2025 107   178     0     0    43.5    41.9     1.6     0.0   14.99   15.70    0.02    0.00    0.00   14.99   10.34   11.35    0.00    0.39     0.3     0.2    0.11    0.18    0.34    0.66    1.12    1.66    1.80    0.38    0.47    0.15    0.05    0.05    0.04    0.05    0.04    0.03    0.02    0.77    0.80    0.30    0.15    0.22    0.38    0.71    1.16    1.69    1.83
 2025 108   179     0     0    43.7    42.0     1.8     0.0   15.48   15.93    0.02    0.00    0.00   15.48   10.56   11.35    0.00    0.42     0.4     0.2    0.11    0.18    0.34    0.66    1.11    1.66    1.81    0.44    0.51    0.16    0.06    0.05    0.05    0.05    0.04    0.04    0.03    0.85    0.89    0.33    0.16    0.23    0.39    0.71    1.15    1.70    1.83
 2025 109   180     0     0    43.9    42.1     1.9     0.0   15.93   16.18    0.02    0.00    0.00   15.92   10.80   11.35    0.00    0.44     0.4     0.2    0.11    0.18    0.33    0.65    1.10    1.66    1.81    0.47    0.54    0.17    0.06    0.05    0.05    0.05    0.05    0.04    0.03    0.91    0.97    0.35    0.17    0.23    0.39    0.70    1.15    1.70    1.84
 2025 110   181     0     0    44.1    42.2     1.9     0.0   16.32   16.43    0.02    0.00    0.00   16.32   11.04   11.35    0.00    0.48     0.5     0.2    0.11    0.18    0.33    0.64    1.09    1.67    1.81    0.48    0.55    0.18    0.06    0.06    0.06    0.06    0.05    0.04    0.03    0.97    1.02    0.37    0.18    0.23    0.38    0.70    1.14    1.71    1.84
 2025 111   182     0     0    44.2    42.2     2.0     0.0   16.72   16.69    0.02    0.00    0.00   16.72   11.31   11.35    0.00    0.50     0.5     0.2    0.12    0.18    0.33    0.64    1.08    1.67    1.82    0.50    0.56    0.18    0.06    0.06    0.06    0.06    0.05    0.04    0.03    0.99    1.06    0.38    0.18    0.24    0.38    0.69    1.13    1.71    1.85
 2025 112   183     0     0    44.3    42.3     2.0     0.0   17.05   16.93    0.02    0.00    0.00   17.05   11.60   11.35    0.00    0.51     0.5     0.2    0.12    0.18    0.32    0.63    1.07    1.67    1.82    0.49    0.54    0.18    0.06    0.06    0.06    0.06    0.05    0.04    0.03    1.00    1.08    0.39    0.18    0.24    0.38    0.69    1.13    1.72    1.85
 2025 113   184     0     0    44.3    42.4     2.0     0.0   17.38   17.17    0.02    0.00    0.00   17.38   11.88   11.35    0.00    0.40     0.7     0.2    0.12    0.18    0.32    0.62    1.06    1.68    1.83    0.48    0.53    0.17    0.06    0.06    0.06    0.06    0.05    0.04    0.03    0.88    1.20    0.41    0.18    0.24    0.38    0.68    1.12    1.72    1.86
 2025 114   185     0     0    44.4    42.4     2.0     0.0   17.79   17.42    0.02    0.00    0.00   17.79   12.21   11.35    0.00    0.43     0.6     0.3    0.13    0.18    0.33    0.63    1.07    1.67    1.82    0.50    0.55    0.17    0.07    0.06    0.06    0.06    0.05    0.04    0.03    0.93    1.12    0.46    0.19    0.24    0.39    0.69    1.12    1.72    1.86
 2025 115   186     0     0    44.5    42.4     2.0     0.0   18.17   17.67    0.02    0.00    0.00   18.17   12.50   11.35    0.00    0.42     0.5     0.3    0.15    0.19    0.33    0.63    1.07    1.67    1.83    0.53    0.55    0.17    0.07    0.06    0.06    0.06    0.05    0.04    0.03    0.95    1.10    0.49    0.22    0.25    0.39    0.69    1.12    1.72    1.86
 2025 116   187     0     0    44.5    42.5     2.0     0.0   18.49   17.90    0.02    0.00    0.00   18.48   12.80   11.35    0.00    0.42     0.5     0.3    0.17    0.19    0.33    0.63    1.06    1.67    1.83    0.53    0.55    0.17    0.06    0.06    0.06    0.06    0.05    0.04    0.03    0.95    1.08    0.49    0.23    0.25    0.39    0.69    1.11    1.72    1.86
 2025 117   188     0     0    44.4    42.5     2.0     0.0   18.80   18.14    0.02    0.00    0.00   18.79   13.16   11.35    0.00    0.45     0.5     0.3    0.18    0.20    0.33    0.61    1.05    1.69    1.84    0.50    0.53    0.17    0.06    0.06    0.06    0.06    0.05    0.04    0.03    0.95    1.02    0.47    0.24    0.26    0.39    0.67    1.10    1.74    1.87
 2025 118   189     0     0    44.3    42.4     1.9     0.0   19.12   18.36    0.02    0.00    0.00   19.12   13.59   11.35    0.00    0.49     0.5     0.3    0.18    0.20    0.34    0.62    1.05    1.69    1.83    0.46    0.52    0.16    0.06    0.06    0.06    0.06    0.05    0.04    0.03    0.95    0.98    0.45    0.24    0.26    0.39    0.68    1.10    1.74    1.87
 2025 119   190     0     0    44.2    42.3     1.9     0.0   19.45   18.58    0.02    0.00    0.00   19.45   14.03   11.35    0.00    0.53     0.4     0.3    0.17    0.21    0.34    0.63    1.06    1.69    1.83    0.44    0.50    0.16    0.06    0.06    0.06    0.06    0.05    0.04    0.03    0.97    0.94    0.43    0.23    0.26    0.40    0.68    1.11    1.73    1.86
 2025 120   191     0     0    44.2    42.3     1.9     0.0   19.84   18.81    0.02    0.00    0.00   19.84   14.44   11.35    0.00    0.58     0.4     0.3    0.17    0.21    0.35    0.63    1.06    1.68    1.83    0.44    0.50    0.16    0.06    0.06    0.06    0.06    0.05    0.04    0.03    1.02    0.92    0.42    0.23    0.27    0.41    0.69    1.12    1.73    1.86
 2025 121   192     0     0    44.3    42.3     2.0     0.0   20.30   19.08    0.02    0.00    0.00   20.30   14.84   11.35    0.00    0.58     0.4     0.3    0.17    0.21    0.35    0.62    1.05    1.68    1.83    0.46    0.52    0.16    0.07    0.06    0.06    0.06    0.05    0.05    0.03    1.04    0.96    0.42    0.23    0.27    0.41    0.69    1.10    1.73    1.87
 2025 122   193     0     0    44.4    42.4     2.1     0.0   20.85   19.40    0.02    0.00    0.00   20.84   15.22   11.35    0.00    0.62     0.5     0.3    0.17    0.21    0.34    0.62    1.04    1.68    1.84    0.48    0.55    0.17    0.07    0.07    0.06    0.07    0.06    0.05    0.04    1.10    1.02    0.44    0.24    0.27    0.41    0.68    1.09    1.73    1.87
 2025 123   194     0     0    44.6    42.5     2.2     0.0   21.45   19.77    0.02    0.00    0.00   21.45   15.60   11.35    0.00    0.47     0.6     0.3    0.17    0.21    0.34    0.61    1.02    1.68    1.84    0.51    0.58    0.18    0.08    0.07    0.07    0.07    0.06    0.05    0.04    0.98    1.22    0.49    0.25    0.28    0.41    0.68    1.08    1.73    1.88
 2025 124   195     0     0    44.9    42.6     2.3     0.0   22.14   20.18    0.02    0.00    0.00   22.14   16.03   11.35    0.00    0.46     0.6     0.4    0.20    0.22    0.35    0.61    1.02    1.68    1.85    0.58    0.61    0.19    0.08    0.07    0.07    0.07    0.06    0.05    0.04    1.03    1.23    0.55    0.28    0.29    0.42    0.69    1.09    1.73    1.89
 2025 125   196     0     0    45.1    42.7     2.4     0.0   22.76   20.58    0.02    0.00    0.00   22.76   16.42   11.35    0.00    0.50     0.6     0.4    0.22    0.23    0.34    0.59    0.99    1.67    1.89    0.64    0.63    0.20    0.08    0.08    0.07    0.08    0.07    0.06    0.04    1.14    1.21    0.55    0.30    0.30    0.42    0.66    1.06    1.73    1.93
 2025 126   197     0     0    45.2    42.8     2.4     0.0   23.34   20.98    0.02    0.00    0.00   23.33   16.95   11.35    0.00    0.55     0.6     0.4    0.23    0.23    0.34    0.57    0.96    1.65    1.89    0.62    0.62    0.19    0.08    0.08    0.08    0.08    0.07    0.06    0.04    1.18    1.19    0.55    0.31    0.31    0.41    0.65    1.03    1.71    1.93
 2025 127   198     0     0    45.0    42.7     2.3     0.0   23.81   21.32    0.02    0.00    0.00   23.81   17.56   11.35    0.00    0.60     0.5     0.3    0.23    0.24    0.34    0.57    0.96    1.64    1.89    0.57    0.59    0.19    0.08    0.08    0.07    0.08    0.07    0.06    0.04    1.17    1.13    0.52    0.31    0.31    0.42    0.65    1.03    1.70    1.93
 2025 128   199     0     0    44.8    42.6     2.2     0.0   24.19   21.62    0.02    0.00    0.00   24.19   18.20   11.35    0.00    0.63     0.5     0.3    0.22    0.23    0.35    0.58    0.97    1.63    1.89    0.51    0.55    0.18    0.08    0.07    0.07    0.07    0.06    0.06    0.04    1.14    1.05    0.49    0.30    0.31    0.42    0.65    1.03    1.69    1.93
 2025 129   200     0     0    44.5    42.4     2.1     0.0   24.51   21.88    0.02    0.00    0.00   24.51   18.78   11.35    0.00    0.59     0.5     0.3    0.21    0.23    0.34    0.56    0.95    1.62    1.89    0.46    0.50    0.16    0.07    0.07    0.07    0.07    0.06    0.05    0.04    1.05    0.99    0.47    0.28    0.30    0.41    0.64    1.01    1.68    1.94
 2025 130   201     0     0    44.3    42.3     2.0     0.0   24.81   22.12    0.02    0.00    0.00   24.80   19.32   11.35    0.00    0.58     0.5     0.3    0.20    0.22    0.33    0.55    0.93    1.61    1.90    0.43    0.46    0.15    0.07    0.07    0.07    0.07    0.06    0.05    0.04    1.01    0.94    0.44    0.27    0.29    0.39    0.62    0.99    1.67    1.94
 2025 131   202     0     0    44.1    42.2     1.9     0.0   25.11   22.36    0.02    0.00    0.00   25.11   19.83   11.35    0.00    0.58     0.5     0.3    0.19    0.22    0.32    0.54    0.91    1.60    1.90    0.41    0.43    0.15    0.07    0.06    0.06    0.07    0.06    0.05    0.04    0.99    0.89    0.42    0.26    0.28    0.38    0.61    0.97    1.65    1.94
 2025 132   203     0     0    43.9    42.1     1.9     0.0   25.43   22.60    0.02    0.00    0.00   25.43   20.31   11.35    0.00    0.60     0.4     0.3    0.19    0.21    0.31    0.53    0.89    1.59    1.91    0.40    0.42    0.14    0.07    0.06    0.06    0.07    0.06    0.05    0.04    1.00    0.86    0.40    0.25    0.27    0.37    0.59    0.94    1.64    1.95
 2025 133   204     0     0    43.8    41.9     1.9     0.0   25.78   22.84    0.02    0.00    0.00   25.78   20.77   11.35    0.00    0.62     0.4     0.2    0.18    0.20    0.30    0.51    0.86    1.57    1.91    0.40    0.41    0.14    0.07    0.06    0.06    0.07    0.06    0.05    0.04    1.02    0.85    0.39    0.25    0.27    0.36    0.58    0.92    1.62    1.95
 2025 134   205     0     0    43.7    41.8     1.9     0.0   26.13   23.09    0.02    0.00    0.00   26.13   21.22   11.35    0.00    0.65     0.4     0.2    0.17    0.20    0.29    0.50    0.84    1.56    1.92    0.41    0.41    0.14    0.07    0.06    0.06    0.07    0.06    0.05    0.04    1.05    0.84    0.38    0.24    0.26    0.35    0.56    0.90    1.61    1.96
 2025 135   206     0     0    43.6    41.8     1.9     0.0   26.50   23.33    0.02    0.00    0.00   26.50   21.67   11.35    0.00    0.68     0.4     0.2    0.17    0.19    0.28    0.49    0.82    1.54    1.92    0.41    0.40    0.14    0.07    0.06    0.06    0.07    0.06    0.05    0.04    1.09    0.84    0.37    0.24    0.26    0.35    0.55    0.88    1.59    1.96
 2025 136   207     0     0    43.6    41.7     1.9     0.0   26.87   23.59    0.02    0.00    0.00   26.87   22.10   11.35    0.00    0.72     0.4     0.2    0.16    0.19    0.27    0.47    0.80    1.52    1.93    0.42    0.41    0.14    0.07    0.07    0.06    0.07    0.06    0.05    0.04    1.13    0.84    0.37    0.23    0.25    0.34    0.54    0.86    1.57    1.97
 2025 137   208     0     0    43.5    41.6     1.9     0.0   27.21   23.83    0.02    0.00    0.00   27.21   22.53   11.35    0.00    0.75     0.4     0.2    0.16    0.18    0.27    0.46    0.78    1.50    1.93    0.42    0.40    0.14    0.07    0.07    0.06    0.07    0.06    0.05    0.04    1.17    0.84    0.36    0.23    0.25    0.33    0.53    0.84    1.55    1.97
 2025 138   209     0     0    43.4    41.5     1.9     0.0   27.53   24.07    0.02    0.00    0.00   27.52   22.95   11.35    0.00    0.78     0.4     0.2    0.15    0.18    0.26    0.45    0.76    1.48    1.94    0.42    0.39    0.14    0.07    0.06    0.06    0.07    0.06    0.05    0.04    1.21    0.83    0.35    0.22    0.24    0.32    0.51    0.82    1.53    1.98
 2025 139   210     0     0    43.3    41.4     1.9     0.0   27.83   24.30    0.02    0.00    0.00   27.83   23.36   11.35    0.00    0.82     0.4     0.2    0.15    0.17    0.25    0.44    0.74    1.46    1.94    0.42    0.38    0.13    0.07    0.06    0.06    0.07    0.06    0.05    0.04    1.24    0.82    0.34    0.22    0.24    0.32    0.50    0.79    1.51    1.98
[...]
 2025 169   240   180     3    37.4    36.1     1.3     0.0   32.15  134.30    0.04    0.00    1.09   32.15  212.17   11.35    0.00    0.04     0.2     0.3    0.27    0.24    0.24    0.25    0.26    0.49    1.21    0.18    0.16    0.10    0.08    0.06    0.05    0.05    0.03    0.02    0.04    0.22    0.33    0.44    0.35    0.30    0.29    0.30    0.30    0.51    1.26
 2025 170   241   180     3    37.4    36.1     1.3     0.0   32.34  134.47    0.04    0.00    1.09   32.33  212.35   11.35    0.00    0.06     0.2     0.4    0.28    0.25    0.25    0.25    0.27    0.50    1.17    0.19    0.15    0.10    0.08    0.06    0.05    0.05    0.03    0.02    0.04    0.24    0.34    0.45    0.36    0.31    0.30    0.30    0.30    0.52    1.21
 2025 171   242   180     3    37.4    36.1     1.3     0.0   32.51  134.64    0.04    0.00    1.09   32.51  212.54   11.35    0.00    0.07     0.2     0.4    0.28    0.25    0.25    0.26    0.27    0.50    1.12    0.19    0.15    0.10    0.08    0.06    0.05    0.05    0.03    0.02    0.04    0.26    0.35    0.46    0.37    0.31    0.30    0.31    0.31    0.52    1.17
 2025 172   243   180     3    37.4    36.1     1.3     0.0   32.68  134.81    0.04    0.00    1.09   32.68  212.72   11.35    0.00    0.09     0.2     0.4    0.29    0.26    0.26    0.26    0.28    0.51    1.08    0.19    0.15    0.10    0.08    0.06    0.05    0.05    0.03    0.02    0.04    0.28    0.35    0.46    0.37    0.32    0.31    0.31    0.31    0.53    1.12
 2025 173   244   180     3    37.4    36.1     1.3     0.0   32.86  134.97    0.04    0.00    1.10   32.85  212.89   11.35    0.00    0.10     0.2     0.4    0.30    0.26    0.26    0.27    0.28    0.51    1.04    0.19    0.14    0.10    0.08    0.06    0.05    0.05    0.03    0.02    0.04    0.30    0.36    0.47    0.38    0.32    0.31    0.32    0.31    0.53    1.08
 2025 174   245   180     3    37.4    36.1     1.3     0.0   33.04  135.15    0.04    0.00    1.10   33.03  213.06   11.35    0.00    0.12     0.2     0.4    0.30    0.27    0.27    0.27    0.29    0.51    1.00    0.19    0.14    0.09    0.08    0.06    0.05    0.05    0.03    0.02    0.04    0.31    0.37    0.48    0.39    0.33    0.32    0.32    0.32    0.54    1.04
 2025 175   246   180     3    37.4    36.1     1.3     0.0   33.22  135.33    0.04    0.00    1.10   33.22  213.22   11.35    0.00    0.13     0.2     0.4    0.31    0.28    0.28    0.28    0.29    0.52    0.96    0.19    0.14    0.09    0.08    0.06    0.05    0.05    0.03    0.02    0.04    0.32    0.38    0.48    0.39    0.33    0.32    0.33    0.32    0.54    1.00
 2025 176   247   180     3    37.5    36.2     1.3     0.0   33.40  135.50    0.04    0.00    1.10   33.40  213.37   11.35    0.00    0.14     0.3     0.4    0.32    0.28    0.28    0.28    0.30    0.52    0.93    0.19    0.13    0.09    0.08    0.06    0.05    0.05    0.03    0.02    0.04    0.33    0.38    0.49    0.40    0.34    0.33    0.33    0.33    0.54    0.97
 2025 177   248   180     3    37.5    36.2     1.3     0.0   33.59  135.69    0.04    0.00    1.10   33.58  213.52   11.35    0.00    0.16     0.3     0.4    0.32    0.29    0.29    0.29    0.30    0.53    0.89    0.19    0.13    0.09    0.08    0.06    0.05    0.05    0.03    0.02    0.04    0.35    0.39    0.50    0.41    0.35    0.34    0.34    0.33    0.55    0.94
 2025 178   249   180     3    37.5    36.3     1.3     0.0   33.78  135.88    0.04    0.00    1.10   33.78  213.66   11.35    0.00    0.17     0.3     0.4    0.33    0.30    0.29    0.30    0.31    0.53    0.86    0.19    0.13    0.09    0.08    0.06    0.05    0.05    0.03    0.02    0.04    0.36    0.40    0.50    0.41    0.35    0.34    0.35    0.34    0.55    0.91
 2025 179   250   180     3    37.6    36.3     1.3     0.0   34.04  136.08    0.04    0.00    1.10   34.04  213.89   11.35    0.00    0.15     0.3     0.4    0.34    0.30    0.30    0.30    0.31    0.54    0.84    0.19    0.13    0.09    0.08    0.06    0.05    0.05    0.03    0.02    0.04    0.33    0.41    0.51    0.42    0.36    0.35    0.35    0.35    0.56    0.88
 2025 180   251   180     3    37.6    36.4     1.3     0.0   34.26  136.28    0.04    0.00    1.11   34.26  214.03   11.35    0.00    0.17     0.3     0.4    0.34    0.31    0.31    0.31    0.32    0.54    0.81    0.20    0.12    0.09    0.08    0.06    0.05    0.05    0.03    0.02    0.04    0.37    0.42    0.52    0.43    0.37    0.36    0.36    0.35    0.56    0.85
 2025 181   252   180     3    37.7    36.4     1.3     0.0   34.47  136.48    0.04    0.00    1.11   34.47  214.15   11.35    0.00    0.20     0.3     0.4    0.35    0.32    0.31    0.32    0.32    0.55    0.79    0.21    0.12    0.09    0.08    0.06    0.05    0.05    0.03    0.02    0.04    0.40    0.43    0.52    0.44    0.37    0.36    0.37    0.36    0.57    0.83
 2025 182   253   180     3    37.8    36.5     1.3     0.0   34.69  136.69    0.04    0.00    1.11   34.68  214.27   11.35    0.00    0.22     0.3     0.4    0.36    0.32    0.32    0.32    0.33    0.55    0.76    0.21    0.12    0.09    0.08    0.06    0.05    0.05    0.03    0.02    0.04    0.43    0.43    0.53    0.44    0.38    0.37    0.37    0.36    0.57    0.81
 2025 183   254   180     3    37.9    36.6     1.3     0.0   34.97  136.92    0.04    0.00    1.11   34.96  214.47   11.35    0.00    0.21     0.3     0.4    0.37    0.33    0.33    0.33    0.34    0.56    0.74    0.21    0.12    0.09    0.08    0.06    0.05    0.05    0.03    0.02    0.04    0.42    0.44    0.54    0.45    0.39    0.38    0.38    0.37    0.58    0.79
 2025 184   255   180     3    38.0    36.7     1.3     0.0   35.20  137.16    0.04    0.00    1.11   35.20  214.58   11.35    0.00    0.24     0.3     0.5    0.38    0.34    0.34    0.34    0.34    0.56    0.72    0.21    0.12    0.09    0.08    0.06    0.05    0.05    0.03    0.02    0.04    0.45    0.45    0.55    0.46    0.40    0.38    0.39    0.37    0.58    0.77
 2025 185   256   180     3    38.1    36.9     1.3     0.0   35.43  137.38    0.04    0.00    1.12   35.43  214.69   11.35    0.00    0.26     0.3     0.5    0.38    0.35    0.34    0.34    0.35    0.57    0.71    0.21    0.11    0.09    0.08    0.06    0.05    0.05    0.03    0.02    0.04    0.47    0.46    0.56    0.47    0.40    0.39    0.39    0.38    0.59    0.75
 2025 186   257   180     3    38.3    37.0     1.3     0.0   35.65  137.60    0.04    0.00    1.12   35.65  214.80   11.35    0.00    0.28     0.4     0.5    0.39    0.36    0.35    0.35    0.35    0.57    0.69    0.21    0.11    0.09    0.08    0.06    0.05    0.05    0.03    0.02    0.04    0.49    0.47    0.57    0.48    0.41    0.40    0.40    0.39    0.59    0.73
 2025 187   258   180     3    38.4    37.1     1.3     0.0   35.86  137.80    0.04    0.00    1.12   35.85  214.90   11.35    0.00    0.30     0.4     0.5    0.40    0.36    0.36    0.36    0.36    0.58    0.67    0.21    0.11    0.09    0.08    0.06    0.05    0.05    0.03    0.02    0.04    0.51    0.48    0.57    0.48    0.42    0.41    0.41    0.39    0.60    0.72
 2025 188   259   180     3    38.5    37.2     1.3     0.0   36.05  137.99    0.04    0.00    1.12   36.05  214.99   11.35    0.00    0.32     0.4     0.5    0.41    0.37    0.36    0.36    0.36    0.58    0.66    0.20    0.11    0.09    0.08    0.06    0.05    0.05    0.03    0.02    0.04    0.53    0.48    0.58    0.49    0.43    0.41    0.41    0.40    0.60    0.70
 2025 189   260   180     3    38.5    37.3     1.3     0.0   36.24  138.17    0.04    0.00    1.12   36.23  215.09   11.35    0.00    0.34     0.4     0.5    0.41    0.38    0.37    0.37    0.37    0.59    0.64    0.20    0.11    0.09    0.08    0.06    0.05    0.05    0.03    0.02    0.04    0.55    0.49    0.59    0.50    0.43    0.42    0.42    0.40    0.61    0.68
 2025 190   261   180     3    38.6    37.4     1.3     0.0   36.42  138.34    0.04    0.00    1.12   36.42  215.18   11.35    0.00    0.37     0.4     0.5    0.42    0.38    0.37    0.38    0.37    0.59    0.63    0.21    0.11    0.09    0.08    0.06    0.05    0.05    0.03    0.02    0.04    0.58    0.50    0.59    0.50    0.44    0.42    0.42    0.41    0.61    0.67
 2025 191   262   180     3    38.7    37.4     1.3     0.0   36.59  138.49    0.04    0.00    1.12   36.59  215.27   11.35    0.00    0.39     0.4     0.5    0.42    0.39    0.38    0.38    0.38    0.59    0.61    0.22    0.11    0.09    0.09    0.06    0.05    0.05    0.03    0.02    0.04    0.61    0.50    0.60    0.51    0.44    0.43    0.43    0.41    0.61    0.65
 2025 192   263   180     3    38.8    37.5     1.3     0.0   36.75  138.64    0.04    0.00    1.13   36.75  215.36   11.35    0.00    0.41     0.4     0.5    0.43    0.39    0.38    0.38    0.38    0.60    0.59    0.23    0.11    0.09    0.09    0.06    0.05    0.05    0.03    0.02    0.04    0.64    0.51    0.60    0.51    0.45    0.43    0.43    0.41    0.62    0.64
 2025 193   264   180     3    38.9    37.6     1.3     0.0   36.90  138.78    0.04    0.00    1.13   36.90  215.44   11.35    0.00    0.44     0.4     0.5    0.43    0.39    0.39    0.39    0.39    0.60    0.58    0.23    0.11    0.09    0.09    0.06    0.05    0.05    0.03    0.02    0.04    0.67    0.51    0.61    0.52    0.45    0.44    0.44    0.42    0.62    0.62
 2025 194   265   180     3    38.9    37.6     1.3     0.0   37.06  138.92    0.04    0.00    1.13   37.05  215.52   11.35    0.00    0.46     0.4     0.5    0.44    0.40    0.39    0.39    0.39    0.60    0.57    0.23    0.11    0.09    0.09    0.06    0.05    0.05    0.03    0.02    0.04    0.69    0.51    0.61    0.52    0.46    0.44    0.44    0.42    0.62    0.61
 2025 195   266   180     3    39.0    37.7     1.3     0.0   37.22  139.08    0.04    0.00    1.13   37.22  215.60   11.35    0.00    0.48     0.4     0.5    0.44    0.40    0.40    0.40    0.39    0.61    0.55    0.23    0.11    0.09    0.09    0.06    0.05    0.05    0.03    0.02    0.04    0.71    0.52    0.62    0.53    0.46    0.45    0.45    0.43    0.63    0.59
 2025 196   267   180     3    38.7    37.4     1.2     0.0   37.51  139.23    0.04    0.00    1.13   37.50  216.24   11.35    0.00    0.01     0.4     0.5    0.45    0.41    0.40    0.40    0.40    0.61    0.54    0.16    0.11    0.09    0.09    0.06    0.05    0.05    0.03    0.02    0.04    0.17    0.53    0.62    0.54    0.47    0.45    0.45    0.43    0.63    0.58
 2025 197   268   180     3    38.9    37.6     1.3     0.0   37.79  139.42    0.04    0.00    1.13   37.79  216.24   11.35    0.00    0.06     0.4     0.5    0.46    0.42    0.41    0.41    0.40    0.62    0.55    0.27    0.12    0.09    0.09    0.06    0.05    0.05    0.03    0.02    0.04    0.33    0.53    0.63    0.54    0.47    0.46    0.46    0.44    0.64    0.59
 2025 198   269   180     3    39.3    37.8     1.5     0.0   38.19  139.64    0.04    0.00    1.14   38.19  216.24   11.35    0.00    0.19     0.7     0.5    0.43    0.41    0.41    0.40    0.41    0.60    0.59    0.33    0.26    0.09    0.09    0.06    0.05    0.05    0.03    0.02    0.04    0.52    0.92    0.62    0.52    0.47    0.46    0.45    0.45    0.62    0.64
 2025 199   270   180     3    39.7    38.1     1.7     0.0   38.61  139.90    0.04    0.00    1.15   38.61  216.24   11.35    0.00    0.32     0.8     0.5    0.42    0.41    0.41    0.40    0.42    0.60    0.61    0.38    0.40    0.09    0.09    0.06    0.05    0.05    0.03    0.02    0.05    0.70    1.17    0.64    0.51    0.47    0.46    0.45    0.45    0.62    0.66
 2025 200   271   180     3    40.1    38.4     1.7     0.0   39.01  140.19    0.04    0.00    1.17   39.00  216.24   11.35    0.00    0.61     1.0     0.5    0.40    0.40    0.41    0.39    0.43    0.58    0.66    0.40    0.48    0.10    0.09    0.06    0.05    0.05    0.03    0.02    0.05    1.01    1.51    0.62    0.48    0.46    0.46    0.44    0.46    0.60    0.71
 2025 201   272   180     3    40.5    38.7     1.8     0.0   39.40  140.50    0.04    0.00    1.17   39.40  216.24   11.35    0.00    0.71     1.2     0.5    0.40    0.41    0.42    0.39    0.43    0.58    0.67    0.42    0.54    0.10    0.09    0.06    0.05    0.05    0.03    0.02    0.05    1.13    1.69    0.63    0.49    0.47    0.47    0.44    0.47    0.60    0.72
 2025 202   273   180     3    40.9    39.0     1.9     0.0   39.80  140.84    0.04    0.00    1.18   39.80  216.24   11.35    0.00    0.47     1.1     0.8    0.41    0.41    0.42    0.40    0.44    0.58    0.68    0.44    0.59    0.10    0.09    0.06    0.05    0.05    0.03    0.02    0.05    0.91    1.72    0.90    0.49    0.47    0.47    0.45    0.47    0.60    0.73
 2025 203   274   180     3    41.3    39.3     2.0     0.0   40.20  141.16    0.04    0.00    1.19   40.20  216.24   11.35    0.00    0.54     1.1     1.0    0.40    0.41    0.42    0.40    0.44    0.58    0.71    0.46    0.62    0.12    0.09    0.06    0.05    0.05    0.03    0.02    0.05    1.01    1.75    1.07    0.49    0.47    0.47    0.45    0.47    0.60    0.75
 2025 204   275   180     3    41.7    39.7     2.0     0.0   40.66  141.54    0.04    0.00    1.20   40.65  216.24   11.35    0.00    0.73     1.2     1.1    0.39    0.41    0.42    0.39    0.44    0.57    0.74    0.46    0.64    0.14    0.09    0.06    0.05    0.05    0.03    0.02    0.05    1.20    1.82    1.23    0.48    0.47    0.47    0.44    0.47    0.59    0.79
 2025 205   276   180     3    42.2    40.1     2.1     0.0   41.15  141.97    0.04    0.00    1.22   41.14  216.24   11.35    0.00    0.96     1.3     1.2    0.37    0.41    0.42    0.39    0.44    0.56    0.78    0.45    0.64    0.17    0.09    0.06    0.05    0.05    0.03    0.02    0.05    1.41    1.96    1.39    0.46    0.47    0.47    0.44    0.47    0.58    0.83
 2025 206   277   180     3    42.7    40.6     2.1     0.0   41.61  142.40    0.04    0.00    1.23   41.61  216.24   11.35    0.00    1.03     1.4     1.3    0.45    0.40    0.41    0.39    0.44    0.55    0.81    0.44    0.64    0.20    0.09    0.06    0.05    0.05    0.03    0.02    0.05    1.47    2.04    1.52    0.55    0.46    0.46    0.44    0.47    0.57    0.86
 2025 207   278   180     3    43.1    41.0     2.1     0.0   42.05  142.79    0.04    0.00    1.25   42.04  216.24   11.35    0.00    1.06     1.4     1.4    0.61    0.40    0.41    0.39    0.44    0.55    0.84    0.43    0.63    0.22    0.09    0.06    0.05    0.05    0.03    0.02    0.05    1.49    2.07    1.61    0.70    0.46    0.46    0.44    0.47    0.57    0.89
 2025 208   279   180     3    43.5    41.3     2.1     0.0   42.47  143.17    0.05    0.00    1.26   42.47  216.24   11.35    0.00    1.09     1.4     1.4    0.80    0.40    0.41    0.39    0.43    0.55    0.87    0.44    0.64    0.23    0.09    0.06    0.05    0.05    0.03    0.02    0.05    1.53    2.07    1.66    0.89    0.46    0.46    0.44    0.47    0.57    0.92
 2025 209   280   180     3    43.9    41.7     2.1     0.0   42.90  143.58    0.05    0.00    1.28   42.90  216.24   11.35    0.00    1.05     1.4     1.5    1.04    0.40    0.41    0.38    0.43    0.54    0.90    0.43    0.64    0.24    0.09    0.06    0.05    0.05    0.03    0.02    0.05    1.48    2.08    1.70    1.13    0.46    0.46    0.44    0.47    0.56    0.94
 2025 210   281   180     3    44.3    42.1     2.2     0.0   43.31  143.96    0.06    0.00    1.29   43.31  216.24   11.35    0.00    1.09     1.4     1.5    1.27    0.39    0.41    0.38    0.43    0.54    0.92    0.44    0.65    0.24    0.09    0.06    0.05    0.05    0.03    0.02    0.05    1.53    2.05    1.70    1.37    0.46    0.46    0.44    0.46    0.56    0.96
 2025 211   282   180     3    44.7    42.5     2.1     0.0   43.73  144.38    0.06    0.00    1.30   43.73  216.24   11.35    0.00    1.27     1.5     1.4    1.40    0.44    0.40    0.38    0.43    0.54    0.94    0.42    0.64    0.24    0.10    0.06    0.05    0.05    0.03    0.02    0.05    1.69    2.09    1.69    1.50    0.50    0.46    0.43    0.46    0.56    0.99
 2025 212   283   180     3    45.1    42.9     2.1     0.0   44.14  144.78    0.07    0.00    1.32   44.13  216.24   11.35    0.00    1.36     1.5     1.5    1.45    0.54    0.40    0.38    0.43    0.54    0.96    0.41    0.62    0.24    0.10    0.06    0.05    0.05    0.03    0.02    0.05    1.77    2.13    1.70    1.56    0.61    0.46    0.43    0.46    0.56    1.01
 2025 213   284   180     3    45.4    43.3     2.1     0.0   44.53  145.18    0.07    0.00    1.33   44.53  216.24   11.35    0.00    1.34     1.6     1.5    1.49    0.67    0.40    0.38    0.42    0.54    0.99    0.40    0.61    0.24    0.11    0.06    0.05    0.05    0.03    0.02    0.05    1.73    2.22    1.75    1.60    0.73    0.45    0.43    0.46    0.56    1.03
 2025 214   285   180     3    45.8    43.7     2.1     0.0   44.91  145.56    0.08    0.00    1.34   44.91  216.24   11.35    0.00    1.27     1.6     1.6    1.54    0.84    0.40    0.38    0.42    0.54    1.01    0.39    0.59    0.24    0.11    0.06    0.05    0.05    0.03    0.02    0.05    1.66    2.21    1.80    1.65    0.90    0.45    0.43    0.46    0.56    1.05
 2025 215   286   180     3    46.1    44.0     2.1     0.0   45.28  145.91    0.08    0.00    1.36   45.28  216.24   11.35    0.00    1.36     1.6     1.6    1.57    1.01    0.40    0.37    0.42    0.54    1.03    0.39    0.59    0.24    0.11    0.07    0.05    0.05    0.03    0.02    0.05    1.75    2.17    1.80    1.68    1.08    0.45    0.43    0.45    0.56    1.08
 2025 216   287   180     3    46.5    44.4     2.1     0.0   45.65  146.29    0.09    0.00    1.37   45.65  216.24   11.35    0.00    1.40     1.6     1.6    1.58    1.19    0.40    0.37    0.42    0.54    1.05    0.38    0.58    0.24    0.11    0.07    0.05    0.05    0.03    0.02    0.05    1.77    2.18    1.80    1.69    1.26    0.45    0.43    0.45    0.56    1.09
 2025 217   288   180     3    46.9    44.8     2.1     0.0   46.03  146.67    0.10    0.00    1.38   46.03  216.24   11.35    0.00    1.47     1.6     1.6    1.58    1.36    0.40    0.37    0.42    0.54    1.06    0.37    0.57    0.24    0.11    0.07    0.05    0.05    0.04    0.02    0.04    1.84    2.18    1.80    1.69    1.44    0.45    0.43    0.45    0.56    1.11
 2025 218   289   180     3    47.2    45.2     2.1     0.0   46.44  147.06    0.10    0.00    1.39   46.43  216.24   11.35    0.00    1.80     1.6     1.5    1.51    1.48    0.49    0.37    0.42    0.54    1.08    0.36    0.56    0.24    0.11    0.08    0.05    0.05    0.04    0.02    0.04    2.16    2.17    1.75    1.62    1.56    0.54    0.42    0.45    0.56    1.13
 2025 219   290   180     3    47.6    45.5     2.1     0.0   46.83  147.45    0.10    0.00    1.41   46.83  216.24   11.35    0.00    2.32     1.7     1.5    1.48    1.48    0.49    0.37    0.42    0.55    1.11    0.35    0.56    0.24    0.11    0.08    0.05    0.05    0.04    0.02    0.04    2.67    2.25    1.75    1.59    1.56    0.55    0.42    0.45    0.56    1.15
 2025 220   291   180     3    48.0    45.9     2.0     0.0   47.23  147.84    0.10    0.00    1.44   47.23  216.24   11.35    0.00    2.91     1.8     1.5    1.47    1.45    0.48    0.36    0.42    0.55    1.13    0.32    0.55    0.24    0.11    0.09    0.05    0.05    0.04    0.02    0.04    3.24    2.32    1.75    1.58    1.53    0.54    0.42    0.46    0.57    1.18
 2025 221   292   180     3    48.4    46.4     2.0     0.0   47.66  148.27    0.10    0.00    1.44   47.66  216.24   11.35    0.00    3.02     1.9     1.6    1.49    1.47    0.49    0.37    0.42    0.55    1.14    0.32    0.54    0.23    0.11    0.09    0.05    0.05    0.04    0.02    0.04    3.34    2.43    1.80    1.61    1.56    0.54    0.42    0.46    0.57    1.19
